
---------- Begin Simulation Statistics ----------
final_tick                                   56861000                       # Number of ticks from beginning of simulation (restored from checkpoints and never reset)
host_inst_rate                                  61232                       # Simulator instruction rate (inst/s)
host_mem_usage                                 856820                       # Number of bytes of host memory used
host_op_rate                                    73961                       # Simulator op (including micro ops) rate (op/s)
host_seconds                                     0.38                       # Real time elapsed on the host
host_tick_rate                              147811949                       # Simulator tick rate (ticks/s)
sim_freq                                 1000000000000                       # Frequency of simulated ticks
sim_insts                                       23532                       # Number of instructions simulated
sim_ops                                         28450                       # Number of ops (including micro ops) simulated
sim_seconds                                  0.000057                       # Number of seconds simulated
sim_ticks                                    56861000                       # Number of ticks simulated
system.cpu.branchPred.BTBCorrect                    0                       # Number of correct BTB predictions (this stat may not work properly.
system.cpu.branchPred.BTBHitPct             76.498652                       # BTB Hit Percentage
system.cpu.branchPred.BTBHits                    3688                       # Number of BTB hits
system.cpu.branchPred.BTBLookups                 4821                       # Number of BTB lookups
system.cpu.branchPred.RASInCorrect                  3                       # Number of incorrect RAS predictions.
system.cpu.branchPred.condIncorrect              1286                       # Number of conditional branches incorrect
system.cpu.branchPred.condPredicted              8019                       # Number of conditional branches predicted
system.cpu.branchPred.indirectHits                 34                       # Number of indirect target hits.
system.cpu.branchPred.indirectLookups             465                       # Number of indirect predictor lookups.
system.cpu.branchPred.indirectMisses              431                       # Number of indirect misses.
system.cpu.branchPred.lookups                   11185                       # Number of BP lookups
system.cpu.branchPred.loop_predictor.loopPredictorCorrect         2360                       # Number of times the loop predictor is the provider and the prediction is correct
system.cpu.branchPred.loop_predictor.loopPredictorWrong         1810                       # Number of times the loop predictor is the provider and the prediction is wrong
system.cpu.branchPred.statistical_corrector.scPredictorCorrect         2273                       # Number of time the SC predictor is the provider and the prediction is correct
system.cpu.branchPred.statistical_corrector.scPredictorWrong         1897                       # Number of time the SC predictor is the provider and the prediction is wrong
system.cpu.branchPred.tage.bimodalAltMatchProviderCorrect           80                       # Number of times TAGE Alt Match is the bimodal and it is the provider and the prediction is correct
system.cpu.branchPred.tage.bimodalAltMatchProviderWrong           21                       # Number of times TAGE Alt Match is the bimodal and it is the provider and the prediction is wrong
system.cpu.branchPred.tage.tageAltMatchProvider::0          124                       # TAGE provider for alt match
system.cpu.branchPred.tage.tageAltMatchProvider::1            0                       # TAGE provider for alt match
system.cpu.branchPred.tage.tageAltMatchProvider::2           74                       # TAGE provider for alt match
system.cpu.branchPred.tage.tageAltMatchProvider::3            0                       # TAGE provider for alt match
system.cpu.branchPred.tage.tageAltMatchProvider::4           31                       # TAGE provider for alt match
system.cpu.branchPred.tage.tageAltMatchProvider::5            0                       # TAGE provider for alt match
system.cpu.branchPred.tage.tageAltMatchProvider::6            1                       # TAGE provider for alt match
system.cpu.branchPred.tage.tageAltMatchProvider::7          116                       # TAGE provider for alt match
system.cpu.branchPred.tage.tageAltMatchProvider::8            1                       # TAGE provider for alt match
system.cpu.branchPred.tage.tageAltMatchProvider::9          120                       # TAGE provider for alt match
system.cpu.branchPred.tage.tageAltMatchProvider::10           14                       # TAGE provider for alt match
system.cpu.branchPred.tage.tageAltMatchProvider::11            6                       # TAGE provider for alt match
system.cpu.branchPred.tage.tageAltMatchProvider::12            4                       # TAGE provider for alt match
system.cpu.branchPred.tage.tageAltMatchProvider::13            2                       # TAGE provider for alt match
system.cpu.branchPred.tage.tageAltMatchProvider::14           15                       # TAGE provider for alt match
system.cpu.branchPred.tage.tageAltMatchProvider::15            1                       # TAGE provider for alt match
system.cpu.branchPred.tage.tageAltMatchProvider::16            4                       # TAGE provider for alt match
system.cpu.branchPred.tage.tageAltMatchProvider::17            0                       # TAGE provider for alt match
system.cpu.branchPred.tage.tageAltMatchProvider::18            0                       # TAGE provider for alt match
system.cpu.branchPred.tage.tageAltMatchProvider::19            0                       # TAGE provider for alt match
system.cpu.branchPred.tage.tageAltMatchProvider::20            0                       # TAGE provider for alt match
system.cpu.branchPred.tage.tageAltMatchProvider::21            0                       # TAGE provider for alt match
system.cpu.branchPred.tage.tageAltMatchProvider::22            0                       # TAGE provider for alt match
system.cpu.branchPred.tage.tageAltMatchProvider::23            0                       # TAGE provider for alt match
system.cpu.branchPred.tage.tageAltMatchProvider::24            0                       # TAGE provider for alt match
system.cpu.branchPred.tage.tageAltMatchProvider::25            0                       # TAGE provider for alt match
system.cpu.branchPred.tage.tageAltMatchProvider::26            0                       # TAGE provider for alt match
system.cpu.branchPred.tage.tageAltMatchProvider::27            0                       # TAGE provider for alt match
system.cpu.branchPred.tage.tageAltMatchProvider::28            0                       # TAGE provider for alt match
system.cpu.branchPred.tage.tageAltMatchProvider::29            0                       # TAGE provider for alt match
system.cpu.branchPred.tage.tageAltMatchProvider::30            0                       # TAGE provider for alt match
system.cpu.branchPred.tage.tageAltMatchProviderCorrect          112                       # Number of times TAGE Alt Match is the provider and the prediction is correct
system.cpu.branchPred.tage.tageAltMatchProviderWouldHaveHit            1                       # Number of times TAGE Longest Match is the provider, the prediction is wrong and Alt Match prediction was correct
system.cpu.branchPred.tage.tageAltMatchProviderWrong           37                       # Number of times TAGE Alt Match is the provider and the prediction is wrong
system.cpu.branchPred.tage.tageBimodalProviderCorrect         2916                       # Number of times there are no hits on the TAGE tables and the bimodal prediction is correct
system.cpu.branchPred.tage.tageBimodalProviderWrong          558                       # Number of times there are no hits on the TAGE tables and the bimodal prediction is wrong
system.cpu.branchPred.tage.tageLongestMatchProvider::0            0                       # TAGE provider for longest match
system.cpu.branchPred.tage.tageLongestMatchProvider::1            0                       # TAGE provider for longest match
system.cpu.branchPred.tage.tageLongestMatchProvider::2           93                       # TAGE provider for longest match
system.cpu.branchPred.tage.tageLongestMatchProvider::3            0                       # TAGE provider for longest match
system.cpu.branchPred.tage.tageLongestMatchProvider::4           26                       # TAGE provider for longest match
system.cpu.branchPred.tage.tageLongestMatchProvider::5            0                       # TAGE provider for longest match
system.cpu.branchPred.tage.tageLongestMatchProvider::6           66                       # TAGE provider for longest match
system.cpu.branchPred.tage.tageLongestMatchProvider::7           15                       # TAGE provider for longest match
system.cpu.branchPred.tage.tageLongestMatchProvider::8           36                       # TAGE provider for longest match
system.cpu.branchPred.tage.tageLongestMatchProvider::9            3                       # TAGE provider for longest match
system.cpu.branchPred.tage.tageLongestMatchProvider::10          214                       # TAGE provider for longest match
system.cpu.branchPred.tage.tageLongestMatchProvider::11           15                       # TAGE provider for longest match
system.cpu.branchPred.tage.tageLongestMatchProvider::12           13                       # TAGE provider for longest match
system.cpu.branchPred.tage.tageLongestMatchProvider::13            4                       # TAGE provider for longest match
system.cpu.branchPred.tage.tageLongestMatchProvider::14            7                       # TAGE provider for longest match
system.cpu.branchPred.tage.tageLongestMatchProvider::15            0                       # TAGE provider for longest match
system.cpu.branchPred.tage.tageLongestMatchProvider::16           17                       # TAGE provider for longest match
system.cpu.branchPred.tage.tageLongestMatchProvider::17            4                       # TAGE provider for longest match
system.cpu.branchPred.tage.tageLongestMatchProvider::18            0                       # TAGE provider for longest match
system.cpu.branchPred.tage.tageLongestMatchProvider::19            0                       # TAGE provider for longest match
system.cpu.branchPred.tage.tageLongestMatchProvider::20            0                       # TAGE provider for longest match
system.cpu.branchPred.tage.tageLongestMatchProvider::21            0                       # TAGE provider for longest match
system.cpu.branchPred.tage.tageLongestMatchProvider::22            0                       # TAGE provider for longest match
system.cpu.branchPred.tage.tageLongestMatchProvider::23            0                       # TAGE provider for longest match
system.cpu.branchPred.tage.tageLongestMatchProvider::24            0                       # TAGE provider for longest match
system.cpu.branchPred.tage.tageLongestMatchProvider::25            0                       # TAGE provider for longest match
system.cpu.branchPred.tage.tageLongestMatchProvider::26            0                       # TAGE provider for longest match
system.cpu.branchPred.tage.tageLongestMatchProvider::27            0                       # TAGE provider for longest match
system.cpu.branchPred.tage.tageLongestMatchProvider::28            0                       # TAGE provider for longest match
system.cpu.branchPred.tage.tageLongestMatchProvider::29            0                       # TAGE provider for longest match
system.cpu.branchPred.tage.tageLongestMatchProvider::30            0                       # TAGE provider for longest match
system.cpu.branchPred.tage.tageLongestMatchProviderCorrect          347                       # Number of times TAGE Longest Match is the provider and the prediction is correct
system.cpu.branchPred.tage.tageLongestMatchProviderWouldHaveHit           15                       # Number of times TAGE Alt Match is the provider, the prediction is wrong and Longest Match prediction was correct
system.cpu.branchPred.tage.tageLongestMatchProviderWrong           17                       # Number of times TAGE Longest Match is the provider and the prediction is wrong
system.cpu.branchPred.usedRAS                     859                       # Number of times the RAS was used to get a target.
system.cpu.branchPredindirectMispredicted          105                       # Number of mispredicted indirect branches.
system.cpu.cc_regfile_reads                      8625                       # number of cc regfile reads
system.cpu.cc_regfile_writes                     8679                       # number of cc regfile writes
system.cpu.commit.amos                              0                       # Number of atomic instructions committed
system.cpu.commit.branchMispredicts               834                       # The number of times a branch was mispredicted
system.cpu.commit.branches                       5605                       # Number of branches committed
system.cpu.commit.bw_lim_events                  1239                       # number cycles where commit BW limit reached
system.cpu.commit.commitNonSpecStalls              54                       # The number of times commit has been forced to stall to communicate backwards
system.cpu.commit.commitSquashedInsts           13539                       # The number of squashed insts skipped by commit
system.cpu.commit.committedInsts                23588                       # Number of instructions committed
system.cpu.commit.committedOps                  28506                       # Number of ops (including micro ops) committed
system.cpu.commit.committed_per_cycle::samples        39891                       # Number of insts commited each cycle
system.cpu.commit.committed_per_cycle::mean     0.714597                       # Number of insts commited each cycle
system.cpu.commit.committed_per_cycle::stdev     1.779156                       # Number of insts commited each cycle
system.cpu.commit.committed_per_cycle::underflows            0      0.00%      0.00% # Number of insts commited each cycle
system.cpu.commit.committed_per_cycle::0        30973     77.64%     77.64% # Number of insts commited each cycle
system.cpu.commit.committed_per_cycle::1         3276      8.21%     85.86% # Number of insts commited each cycle
system.cpu.commit.committed_per_cycle::2         1731      4.34%     90.20% # Number of insts commited each cycle
system.cpu.commit.committed_per_cycle::3          879      2.20%     92.40% # Number of insts commited each cycle
system.cpu.commit.committed_per_cycle::4          598      1.50%     93.90% # Number of insts commited each cycle
system.cpu.commit.committed_per_cycle::5          551      1.38%     95.28% # Number of insts commited each cycle
system.cpu.commit.committed_per_cycle::6          436      1.09%     96.37% # Number of insts commited each cycle
system.cpu.commit.committed_per_cycle::7          208      0.52%     96.89% # Number of insts commited each cycle
system.cpu.commit.committed_per_cycle::8         1239      3.11%    100.00% # Number of insts commited each cycle
system.cpu.commit.committed_per_cycle::overflows            0      0.00%    100.00% # Number of insts commited each cycle
system.cpu.commit.committed_per_cycle::min_value            0                       # Number of insts commited each cycle
system.cpu.commit.committed_per_cycle::max_value            8                       # Number of insts commited each cycle
system.cpu.commit.committed_per_cycle::total        39891                       # Number of insts commited each cycle
system.cpu.commit.fp_insts                          0                       # Number of committed floating point instructions.
system.cpu.commit.function_calls                  490                       # Number of function calls committed.
system.cpu.commit.int_insts                     25886                       # Number of committed integer instructions.
system.cpu.commit.loads                          4020                       # Number of loads committed
system.cpu.commit.membars                          36                       # Number of memory barriers committed
system.cpu.commit.op_class_0::No_OpClass            7      0.02%      0.02% # Class of committed instruction
system.cpu.commit.op_class_0::IntAlu            19666     68.99%     69.01% # Class of committed instruction
system.cpu.commit.op_class_0::IntMult              42      0.15%     69.16% # Class of committed instruction
system.cpu.commit.op_class_0::IntDiv                3      0.01%     69.17% # Class of committed instruction
system.cpu.commit.op_class_0::FloatAdd              0      0.00%     69.17% # Class of committed instruction
system.cpu.commit.op_class_0::FloatCmp              0      0.00%     69.17% # Class of committed instruction
system.cpu.commit.op_class_0::FloatCvt              0      0.00%     69.17% # Class of committed instruction
system.cpu.commit.op_class_0::FloatMult             0      0.00%     69.17% # Class of committed instruction
system.cpu.commit.op_class_0::FloatMultAcc            0      0.00%     69.17% # Class of committed instruction
system.cpu.commit.op_class_0::FloatDiv              0      0.00%     69.17% # Class of committed instruction
system.cpu.commit.op_class_0::FloatMisc             0      0.00%     69.17% # Class of committed instruction
system.cpu.commit.op_class_0::FloatSqrt             0      0.00%     69.17% # Class of committed instruction
system.cpu.commit.op_class_0::SimdAdd              26      0.09%     69.26% # Class of committed instruction
system.cpu.commit.op_class_0::SimdAddAcc            0      0.00%     69.26% # Class of committed instruction
system.cpu.commit.op_class_0::SimdAlu              26      0.09%     69.35% # Class of committed instruction
system.cpu.commit.op_class_0::SimdCmp              28      0.10%     69.45% # Class of committed instruction
system.cpu.commit.op_class_0::SimdCvt               0      0.00%     69.45% # Class of committed instruction
system.cpu.commit.op_class_0::SimdMisc             30      0.11%     69.56% # Class of committed instruction
system.cpu.commit.op_class_0::SimdMult              0      0.00%     69.56% # Class of committed instruction
system.cpu.commit.op_class_0::SimdMultAcc            0      0.00%     69.56% # Class of committed instruction
system.cpu.commit.op_class_0::SimdShift             0      0.00%     69.56% # Class of committed instruction
system.cpu.commit.op_class_0::SimdShiftAcc            0      0.00%     69.56% # Class of committed instruction
system.cpu.commit.op_class_0::SimdDiv               0      0.00%     69.56% # Class of committed instruction
system.cpu.commit.op_class_0::SimdSqrt              0      0.00%     69.56% # Class of committed instruction
system.cpu.commit.op_class_0::SimdFloatAdd            0      0.00%     69.56% # Class of committed instruction
system.cpu.commit.op_class_0::SimdFloatAlu            0      0.00%     69.56% # Class of committed instruction
system.cpu.commit.op_class_0::SimdFloatCmp            0      0.00%     69.56% # Class of committed instruction
system.cpu.commit.op_class_0::SimdFloatCvt            0      0.00%     69.56% # Class of committed instruction
system.cpu.commit.op_class_0::SimdFloatDiv            0      0.00%     69.56% # Class of committed instruction
system.cpu.commit.op_class_0::SimdFloatMisc            0      0.00%     69.56% # Class of committed instruction
system.cpu.commit.op_class_0::SimdFloatMult            0      0.00%     69.56% # Class of committed instruction
system.cpu.commit.op_class_0::SimdFloatMultAcc            0      0.00%     69.56% # Class of committed instruction
system.cpu.commit.op_class_0::SimdFloatSqrt            0      0.00%     69.56% # Class of committed instruction
system.cpu.commit.op_class_0::SimdReduceAdd            0      0.00%     69.56% # Class of committed instruction
system.cpu.commit.op_class_0::SimdReduceAlu            0      0.00%     69.56% # Class of committed instruction
system.cpu.commit.op_class_0::SimdReduceCmp            0      0.00%     69.56% # Class of committed instruction
system.cpu.commit.op_class_0::SimdFloatReduceAdd            0      0.00%     69.56% # Class of committed instruction
system.cpu.commit.op_class_0::SimdFloatReduceCmp            0      0.00%     69.56% # Class of committed instruction
system.cpu.commit.op_class_0::SimdAes               0      0.00%     69.56% # Class of committed instruction
system.cpu.commit.op_class_0::SimdAesMix            0      0.00%     69.56% # Class of committed instruction
system.cpu.commit.op_class_0::SimdSha1Hash            0      0.00%     69.56% # Class of committed instruction
system.cpu.commit.op_class_0::SimdSha1Hash2            0      0.00%     69.56% # Class of committed instruction
system.cpu.commit.op_class_0::SimdSha256Hash            0      0.00%     69.56% # Class of committed instruction
system.cpu.commit.op_class_0::SimdSha256Hash2            0      0.00%     69.56% # Class of committed instruction
system.cpu.commit.op_class_0::SimdShaSigma2            0      0.00%     69.56% # Class of committed instruction
system.cpu.commit.op_class_0::SimdShaSigma3            0      0.00%     69.56% # Class of committed instruction
system.cpu.commit.op_class_0::SimdPredAlu            0      0.00%     69.56% # Class of committed instruction
system.cpu.commit.op_class_0::MemRead            4020     14.10%     83.66% # Class of committed instruction
system.cpu.commit.op_class_0::MemWrite           4658     16.34%    100.00% # Class of committed instruction
system.cpu.commit.op_class_0::FloatMemRead            0      0.00%    100.00% # Class of committed instruction
system.cpu.commit.op_class_0::FloatMemWrite            0      0.00%    100.00% # Class of committed instruction
system.cpu.commit.op_class_0::IprAccess             0      0.00%    100.00% # Class of committed instruction
system.cpu.commit.op_class_0::InstPrefetch            0      0.00%    100.00% # Class of committed instruction
system.cpu.commit.op_class_0::total             28506                       # Class of committed instruction
system.cpu.commit.refs                           8678                       # Number of memory references committed
system.cpu.commit.swp_count                         0                       # Number of s/w prefetches committed
system.cpu.commit.vec_insts                       413                       # Number of committed Vector instructions.
system.cpu.committedInsts                       23532                       # Number of Instructions Simulated
system.cpu.committedOps                         28450                       # Number of Ops (including micro ops) Simulated
system.cpu.cpi                               4.832696                       # CPI: Cycles Per Instruction
system.cpu.cpi_total                         4.832696                       # CPI: Total CPI of All Threads
system.cpu.decode.BlockedCycles                 13004                       # Number of cycles decode is blocked
system.cpu.decode.BranchMispred                   460                       # Number of times decode detected a branch misprediction
system.cpu.decode.BranchResolved                 3802                       # Number of times decode resolved a branch
system.cpu.decode.DecodedInsts                  47302                       # Number of instructions handled by decode
system.cpu.decode.IdleCycles                    19734                       # Number of cycles decode is idle
system.cpu.decode.RunCycles                      7777                       # Number of cycles decode is running
system.cpu.decode.SquashCycles                    869                       # Number of cycles decode is squashing
system.cpu.decode.SquashedInsts                  1546                       # Number of squashed instructions handled by decode
system.cpu.decode.UnblockCycles                   710                       # Number of cycles decode is unblocking
system.cpu.dtb.accesses                             0                       # DTB accesses
system.cpu.dtb.align_faults                         0                       # Number of TLB faults due to alignment restrictions
system.cpu.dtb.domain_faults                        0                       # Number of TLB faults due to domain restrictions
system.cpu.dtb.flush_entries                        0                       # Number of entries that have been flushed from TLB
system.cpu.dtb.flush_tlb                            0                       # Number of times complete TLB was flushed
system.cpu.dtb.flush_tlb_asid                       0                       # Number of times TLB was flushed by ASID
system.cpu.dtb.flush_tlb_mva                        0                       # Number of times TLB was flushed by MVA
system.cpu.dtb.flush_tlb_mva_asid                   0                       # Number of times TLB was flushed by MVA & ASID
system.cpu.dtb.hits                                 0                       # DTB hits
system.cpu.dtb.inst_accesses                        0                       # ITB inst accesses
system.cpu.dtb.inst_hits                            0                       # ITB inst hits
system.cpu.dtb.inst_misses                          0                       # ITB inst misses
system.cpu.dtb.misses                               0                       # DTB misses
system.cpu.dtb.perms_faults                         0                       # Number of TLB faults due to permissions restrictions
system.cpu.dtb.prefetch_faults                      0                       # Number of TLB faults due to prefetch
system.cpu.dtb.read_accesses                        0                       # DTB read accesses
system.cpu.dtb.read_hits                            0                       # DTB read hits
system.cpu.dtb.read_misses                          0                       # DTB read misses
system.cpu.dtb.stage2_mmu.stage2_tlb.accesses            0                       # DTB accesses
system.cpu.dtb.stage2_mmu.stage2_tlb.align_faults            0                       # Number of TLB faults due to alignment restrictions
system.cpu.dtb.stage2_mmu.stage2_tlb.domain_faults            0                       # Number of TLB faults due to domain restrictions
system.cpu.dtb.stage2_mmu.stage2_tlb.flush_entries            0                       # Number of entries that have been flushed from TLB
system.cpu.dtb.stage2_mmu.stage2_tlb.flush_tlb            0                       # Number of times complete TLB was flushed
system.cpu.dtb.stage2_mmu.stage2_tlb.flush_tlb_asid            0                       # Number of times TLB was flushed by ASID
system.cpu.dtb.stage2_mmu.stage2_tlb.flush_tlb_mva            0                       # Number of times TLB was flushed by MVA
system.cpu.dtb.stage2_mmu.stage2_tlb.flush_tlb_mva_asid            0                       # Number of times TLB was flushed by MVA & ASID
system.cpu.dtb.stage2_mmu.stage2_tlb.hits            0                       # DTB hits
system.cpu.dtb.stage2_mmu.stage2_tlb.inst_accesses            0                       # ITB inst accesses
system.cpu.dtb.stage2_mmu.stage2_tlb.inst_hits            0                       # ITB inst hits
system.cpu.dtb.stage2_mmu.stage2_tlb.inst_misses            0                       # ITB inst misses
system.cpu.dtb.stage2_mmu.stage2_tlb.misses            0                       # DTB misses
system.cpu.dtb.stage2_mmu.stage2_tlb.perms_faults            0                       # Number of TLB faults due to permissions restrictions
system.cpu.dtb.stage2_mmu.stage2_tlb.prefetch_faults            0                       # Number of TLB faults due to prefetch
system.cpu.dtb.stage2_mmu.stage2_tlb.read_accesses            0                       # DTB read accesses
system.cpu.dtb.stage2_mmu.stage2_tlb.read_hits            0                       # DTB read hits
system.cpu.dtb.stage2_mmu.stage2_tlb.read_misses            0                       # DTB read misses
system.cpu.dtb.stage2_mmu.stage2_tlb.walker.walkRequestOrigin_Requested::Data            0                       # Table walker requests started/completed, data/inst
system.cpu.dtb.stage2_mmu.stage2_tlb.walker.walkRequestOrigin_Requested::Inst            0                       # Table walker requests started/completed, data/inst
system.cpu.dtb.stage2_mmu.stage2_tlb.walker.walkRequestOrigin_Requested::total            0                       # Table walker requests started/completed, data/inst
system.cpu.dtb.stage2_mmu.stage2_tlb.walker.walkRequestOrigin_Completed::Data            0                       # Table walker requests started/completed, data/inst
system.cpu.dtb.stage2_mmu.stage2_tlb.walker.walkRequestOrigin_Completed::Inst            0                       # Table walker requests started/completed, data/inst
system.cpu.dtb.stage2_mmu.stage2_tlb.walker.walkRequestOrigin_Completed::total            0                       # Table walker requests started/completed, data/inst
system.cpu.dtb.stage2_mmu.stage2_tlb.walker.walkRequestOrigin::total            0                       # Table walker requests started/completed, data/inst
system.cpu.dtb.stage2_mmu.stage2_tlb.walker.walks            0                       # Table walker walks requested
system.cpu.dtb.stage2_mmu.stage2_tlb.write_accesses            0                       # DTB write accesses
system.cpu.dtb.stage2_mmu.stage2_tlb.write_hits            0                       # DTB write hits
system.cpu.dtb.stage2_mmu.stage2_tlb.write_misses            0                       # DTB write misses
system.cpu.dtb.walker.walkRequestOrigin_Requested::Data            0                       # Table walker requests started/completed, data/inst
system.cpu.dtb.walker.walkRequestOrigin_Requested::Inst            0                       # Table walker requests started/completed, data/inst
system.cpu.dtb.walker.walkRequestOrigin_Requested::total            0                       # Table walker requests started/completed, data/inst
system.cpu.dtb.walker.walkRequestOrigin_Completed::Data            0                       # Table walker requests started/completed, data/inst
system.cpu.dtb.walker.walkRequestOrigin_Completed::Inst            0                       # Table walker requests started/completed, data/inst
system.cpu.dtb.walker.walkRequestOrigin_Completed::total            0                       # Table walker requests started/completed, data/inst
system.cpu.dtb.walker.walkRequestOrigin::total            0                       # Table walker requests started/completed, data/inst
system.cpu.dtb.walker.walks                         0                       # Table walker walks requested
system.cpu.dtb.write_accesses                       0                       # DTB write accesses
system.cpu.dtb.write_hits                           0                       # DTB write hits
system.cpu.dtb.write_misses                         0                       # DTB write misses
system.cpu.fetch.Branches                       11185                       # Number of branches that fetch encountered
system.cpu.fetch.CacheLines                      6474                       # Number of cache lines fetched
system.cpu.fetch.Cycles                         17733                       # Number of cycles fetch has run and was not squashing or blocked
system.cpu.fetch.IcacheSquashes                   813                       # Number of outstanding Icache misses that were squashed
system.cpu.fetch.IcacheWaitRetryStallCycles          111                       # Number of stall cycles due to full MSHR
system.cpu.fetch.Insts                          47366                       # Number of instructions fetch has processed
system.cpu.fetch.MiscStallCycles                  128                       # Number of cycles fetch has spent waiting on interrupts, or bad addresses, or out of MSHRs
system.cpu.fetch.SquashCycles                    2642                       # Number of cycles fetch has spent squashing
system.cpu.fetch.branchRate                  0.098353                       # Number of branch fetches per cycle
system.cpu.fetch.icacheStallCycles              22801                       # Number of cycles fetch is stalled on an Icache miss
system.cpu.fetch.predictedBranches               4581                       # Number of branches that fetch has predicted taken
system.cpu.fetch.rate                        0.416503                       # Number of inst fetches per cycle
system.cpu.fetch.rateDist::samples              42094                       # Number of instructions fetched each cycle (Total)
system.cpu.fetch.rateDist::mean              1.317646                       # Number of instructions fetched each cycle (Total)
system.cpu.fetch.rateDist::stdev             2.646455                       # Number of instructions fetched each cycle (Total)
system.cpu.fetch.rateDist::underflows               0      0.00%      0.00% # Number of instructions fetched each cycle (Total)
system.cpu.fetch.rateDist::0                    31882     75.74%     75.74% # Number of instructions fetched each cycle (Total)
system.cpu.fetch.rateDist::1                     1052      2.50%     78.24% # Number of instructions fetched each cycle (Total)
system.cpu.fetch.rateDist::2                     1015      2.41%     80.65% # Number of instructions fetched each cycle (Total)
system.cpu.fetch.rateDist::3                      717      1.70%     82.35% # Number of instructions fetched each cycle (Total)
system.cpu.fetch.rateDist::4                     1034      2.46%     84.81% # Number of instructions fetched each cycle (Total)
system.cpu.fetch.rateDist::5                      731      1.74%     86.55% # Number of instructions fetched each cycle (Total)
system.cpu.fetch.rateDist::6                     1010      2.40%     88.95% # Number of instructions fetched each cycle (Total)
system.cpu.fetch.rateDist::7                      843      2.00%     90.95% # Number of instructions fetched each cycle (Total)
system.cpu.fetch.rateDist::8                     3810      9.05%    100.00% # Number of instructions fetched each cycle (Total)
system.cpu.fetch.rateDist::overflows                0      0.00%    100.00% # Number of instructions fetched each cycle (Total)
system.cpu.fetch.rateDist::min_value                0                       # Number of instructions fetched each cycle (Total)
system.cpu.fetch.rateDist::max_value                8                       # Number of instructions fetched each cycle (Total)
system.cpu.fetch.rateDist::total                42094                       # Number of instructions fetched each cycle (Total)
system.cpu.idleCycles                           71629                       # Total number of cycles that the CPU has spent unscheduled due to idling
system.cpu.iew.branchMispredicts                  997                       # Number of branch mispredicts detected at execute
system.cpu.iew.exec_branches                     6864                       # Number of branches executed
system.cpu.iew.exec_nop                           122                       # number of nop insts executed
system.cpu.iew.exec_rate                     0.326908                       # Inst execution rate
system.cpu.iew.exec_refs                        11357                       # number of memory reference insts executed
system.cpu.iew.exec_stores                       5453                       # Number of stores executed
system.cpu.iew.exec_swp                             0                       # number of swp insts executed
system.cpu.iew.iewBlockCycles                    2304                       # Number of cycles IEW is blocking
system.cpu.iew.iewDispLoadInsts                  6339                       # Number of dispatched load instructions
system.cpu.iew.iewDispNonSpecInsts                 89                       # Number of dispatched non-speculative instructions
system.cpu.iew.iewDispSquashedInsts               184                       # Number of squashed instructions skipped by dispatch
system.cpu.iew.iewDispStoreInsts                 6321                       # Number of dispatched store instructions
system.cpu.iew.iewDispatchedInsts               42090                       # Number of instructions dispatched to IQ
system.cpu.iew.iewExecLoadInsts                  5904                       # Number of load instructions executed
system.cpu.iew.iewExecSquashedInsts              1114                       # Number of squashed instructions skipped in execute
system.cpu.iew.iewExecutedInsts                 37177                       # Number of executed instructions
system.cpu.iew.iewIQFullEvents                     10                       # Number of times the IQ has become full, causing a stall
system.cpu.iew.iewIdleCycles                        0                       # Number of cycles IEW is idle
system.cpu.iew.iewLSQFullEvents                  1353                       # Number of times the LSQ has become full, causing a stall
system.cpu.iew.iewSquashCycles                    869                       # Number of cycles IEW is squashing
system.cpu.iew.iewUnblockCycles                  1371                       # Number of cycles IEW is unblocking
system.cpu.iew.lsq.thread0.blockedLoads             0                       # Number of blocked loads due to partial load-store forwarding
system.cpu.iew.lsq.thread0.cacheBlocked            86                       # Number of times an access to memory failed due to the cache being blocked
system.cpu.iew.lsq.thread0.forwLoads               80                       # Number of loads that had data forwarded from stores
system.cpu.iew.lsq.thread0.ignoredResponses            3                       # Number of memory responses ignored because the instruction is squashed
system.cpu.iew.lsq.thread0.invAddrLoads             0                       # Number of loads ignored due to an invalid address
system.cpu.iew.lsq.thread0.invAddrSwpfs             0                       # Number of software prefetches ignored due to an invalid address
system.cpu.iew.lsq.thread0.memOrderViolation           21                       # Number of memory ordering violations
system.cpu.iew.lsq.thread0.rescheduledLoads          117                       # Number of loads that were rescheduled
system.cpu.iew.lsq.thread0.squashedLoads         2319                       # Number of loads squashed
system.cpu.iew.lsq.thread0.squashedStores         1663                       # Number of stores squashed
system.cpu.iew.memOrderViolationEvents             21                       # Number of memory order violations
system.cpu.iew.predictedNotTakenIncorrect          809                       # Number of branches that were predicted not taken incorrectly
system.cpu.iew.predictedTakenIncorrect            188                       # Number of branches that were predicted taken incorrectly
system.cpu.iew.wb_consumers                     31510                       # num instructions consuming a value
system.cpu.iew.wb_count                         35773                       # cumulative count of insts written-back
system.cpu.iew.wb_fanout                     0.563504                       # average fanout of values written-back
system.cpu.iew.wb_producers                     17756                       # num instructions producing a value
system.cpu.iew.wb_rate                       0.314563                       # insts written-back per cycle
system.cpu.iew.wb_sent                          36351                       # cumulative count of insts sent to commit
system.cpu.int_regfile_reads                    41177                       # number of integer regfile reads
system.cpu.int_regfile_writes                   25395                       # number of integer regfile writes
system.cpu.ipc                               0.206924                       # IPC: Instructions Per Cycle
system.cpu.ipc_total                         0.206924                       # IPC: Total IPC of All Threads
system.cpu.iq.FU_type_0::No_OpClass                 8      0.02%      0.02% # Type of FU issued
system.cpu.iq.FU_type_0::IntAlu                 26234     68.51%     68.53% # Type of FU issued
system.cpu.iq.FU_type_0::IntMult                   42      0.11%     68.64% # Type of FU issued
system.cpu.iq.FU_type_0::IntDiv                     4      0.01%     68.65% # Type of FU issued
system.cpu.iq.FU_type_0::FloatAdd                   0      0.00%     68.65% # Type of FU issued
system.cpu.iq.FU_type_0::FloatCmp                   0      0.00%     68.65% # Type of FU issued
system.cpu.iq.FU_type_0::FloatCvt                   0      0.00%     68.65% # Type of FU issued
system.cpu.iq.FU_type_0::FloatMult                  0      0.00%     68.65% # Type of FU issued
system.cpu.iq.FU_type_0::FloatMultAcc               0      0.00%     68.65% # Type of FU issued
system.cpu.iq.FU_type_0::FloatDiv                   0      0.00%     68.65% # Type of FU issued
system.cpu.iq.FU_type_0::FloatMisc                  0      0.00%     68.65% # Type of FU issued
system.cpu.iq.FU_type_0::FloatSqrt                  0      0.00%     68.65% # Type of FU issued
system.cpu.iq.FU_type_0::SimdAdd                   28      0.07%     68.73% # Type of FU issued
system.cpu.iq.FU_type_0::SimdAddAcc                 0      0.00%     68.73% # Type of FU issued
system.cpu.iq.FU_type_0::SimdAlu                   28      0.07%     68.80% # Type of FU issued
system.cpu.iq.FU_type_0::SimdCmp                   32      0.08%     68.88% # Type of FU issued
system.cpu.iq.FU_type_0::SimdCvt                    0      0.00%     68.88% # Type of FU issued
system.cpu.iq.FU_type_0::SimdMisc                  33      0.09%     68.97% # Type of FU issued
system.cpu.iq.FU_type_0::SimdMult                   0      0.00%     68.97% # Type of FU issued
system.cpu.iq.FU_type_0::SimdMultAcc                0      0.00%     68.97% # Type of FU issued
system.cpu.iq.FU_type_0::SimdShift                  0      0.00%     68.97% # Type of FU issued
system.cpu.iq.FU_type_0::SimdShiftAcc               0      0.00%     68.97% # Type of FU issued
system.cpu.iq.FU_type_0::SimdDiv                    0      0.00%     68.97% # Type of FU issued
system.cpu.iq.FU_type_0::SimdSqrt                   0      0.00%     68.97% # Type of FU issued
system.cpu.iq.FU_type_0::SimdFloatAdd               0      0.00%     68.97% # Type of FU issued
system.cpu.iq.FU_type_0::SimdFloatAlu               0      0.00%     68.97% # Type of FU issued
system.cpu.iq.FU_type_0::SimdFloatCmp               0      0.00%     68.97% # Type of FU issued
system.cpu.iq.FU_type_0::SimdFloatCvt               0      0.00%     68.97% # Type of FU issued
system.cpu.iq.FU_type_0::SimdFloatDiv               0      0.00%     68.97% # Type of FU issued
system.cpu.iq.FU_type_0::SimdFloatMisc              0      0.00%     68.97% # Type of FU issued
system.cpu.iq.FU_type_0::SimdFloatMult              0      0.00%     68.97% # Type of FU issued
system.cpu.iq.FU_type_0::SimdFloatMultAcc            0      0.00%     68.97% # Type of FU issued
system.cpu.iq.FU_type_0::SimdFloatSqrt              0      0.00%     68.97% # Type of FU issued
system.cpu.iq.FU_type_0::SimdReduceAdd              0      0.00%     68.97% # Type of FU issued
system.cpu.iq.FU_type_0::SimdReduceAlu              0      0.00%     68.97% # Type of FU issued
system.cpu.iq.FU_type_0::SimdReduceCmp              0      0.00%     68.97% # Type of FU issued
system.cpu.iq.FU_type_0::SimdFloatReduceAdd            0      0.00%     68.97% # Type of FU issued
system.cpu.iq.FU_type_0::SimdFloatReduceCmp            0      0.00%     68.97% # Type of FU issued
system.cpu.iq.FU_type_0::SimdAes                    0      0.00%     68.97% # Type of FU issued
system.cpu.iq.FU_type_0::SimdAesMix                 0      0.00%     68.97% # Type of FU issued
system.cpu.iq.FU_type_0::SimdSha1Hash               0      0.00%     68.97% # Type of FU issued
system.cpu.iq.FU_type_0::SimdSha1Hash2              0      0.00%     68.97% # Type of FU issued
system.cpu.iq.FU_type_0::SimdSha256Hash             0      0.00%     68.97% # Type of FU issued
system.cpu.iq.FU_type_0::SimdSha256Hash2            0      0.00%     68.97% # Type of FU issued
system.cpu.iq.FU_type_0::SimdShaSigma2              0      0.00%     68.97% # Type of FU issued
system.cpu.iq.FU_type_0::SimdShaSigma3              0      0.00%     68.97% # Type of FU issued
system.cpu.iq.FU_type_0::SimdPredAlu                0      0.00%     68.97% # Type of FU issued
system.cpu.iq.FU_type_0::MemRead                 6191     16.17%     85.14% # Type of FU issued
system.cpu.iq.FU_type_0::MemWrite                5691     14.86%    100.00% # Type of FU issued
system.cpu.iq.FU_type_0::FloatMemRead               0      0.00%    100.00% # Type of FU issued
system.cpu.iq.FU_type_0::FloatMemWrite              0      0.00%    100.00% # Type of FU issued
system.cpu.iq.FU_type_0::IprAccess                  0      0.00%    100.00% # Type of FU issued
system.cpu.iq.FU_type_0::InstPrefetch               0      0.00%    100.00% # Type of FU issued
system.cpu.iq.FU_type_0::total                  38291                       # Type of FU issued
system.cpu.iq.fp_alu_accesses                       0                       # Number of floating point alu accesses
system.cpu.iq.fp_inst_queue_reads                   0                       # Number of floating instruction queue reads
system.cpu.iq.fp_inst_queue_wakeup_accesses            0                       # Number of floating instruction queue wakeup accesses
system.cpu.iq.fp_inst_queue_writes                  0                       # Number of floating instruction queue writes
system.cpu.iq.fu_busy_cnt                         555                       # FU busy when requested
system.cpu.iq.fu_busy_rate                   0.014494                       # FU busy rate (busy events/executed inst)
system.cpu.iq.fu_full::No_OpClass                   0      0.00%      0.00% # attempts to use FU when none available
system.cpu.iq.fu_full::IntAlu                     189     34.05%     34.05% # attempts to use FU when none available
system.cpu.iq.fu_full::IntMult                      0      0.00%     34.05% # attempts to use FU when none available
system.cpu.iq.fu_full::IntDiv                       0      0.00%     34.05% # attempts to use FU when none available
system.cpu.iq.fu_full::FloatAdd                     0      0.00%     34.05% # attempts to use FU when none available
system.cpu.iq.fu_full::FloatCmp                     0      0.00%     34.05% # attempts to use FU when none available
system.cpu.iq.fu_full::FloatCvt                     0      0.00%     34.05% # attempts to use FU when none available
system.cpu.iq.fu_full::FloatMult                    0      0.00%     34.05% # attempts to use FU when none available
system.cpu.iq.fu_full::FloatMultAcc                 0      0.00%     34.05% # attempts to use FU when none available
system.cpu.iq.fu_full::FloatDiv                     0      0.00%     34.05% # attempts to use FU when none available
system.cpu.iq.fu_full::FloatMisc                    0      0.00%     34.05% # attempts to use FU when none available
system.cpu.iq.fu_full::FloatSqrt                    0      0.00%     34.05% # attempts to use FU when none available
system.cpu.iq.fu_full::SimdAdd                      0      0.00%     34.05% # attempts to use FU when none available
system.cpu.iq.fu_full::SimdAddAcc                   0      0.00%     34.05% # attempts to use FU when none available
system.cpu.iq.fu_full::SimdAlu                      1      0.18%     34.23% # attempts to use FU when none available
system.cpu.iq.fu_full::SimdCmp                      2      0.36%     34.59% # attempts to use FU when none available
system.cpu.iq.fu_full::SimdCvt                      0      0.00%     34.59% # attempts to use FU when none available
system.cpu.iq.fu_full::SimdMisc                     0      0.00%     34.59% # attempts to use FU when none available
system.cpu.iq.fu_full::SimdMult                     0      0.00%     34.59% # attempts to use FU when none available
system.cpu.iq.fu_full::SimdMultAcc                  0      0.00%     34.59% # attempts to use FU when none available
system.cpu.iq.fu_full::SimdShift                    0      0.00%     34.59% # attempts to use FU when none available
system.cpu.iq.fu_full::SimdShiftAcc                 0      0.00%     34.59% # attempts to use FU when none available
system.cpu.iq.fu_full::SimdDiv                      0      0.00%     34.59% # attempts to use FU when none available
system.cpu.iq.fu_full::SimdSqrt                     0      0.00%     34.59% # attempts to use FU when none available
system.cpu.iq.fu_full::SimdFloatAdd                 0      0.00%     34.59% # attempts to use FU when none available
system.cpu.iq.fu_full::SimdFloatAlu                 0      0.00%     34.59% # attempts to use FU when none available
system.cpu.iq.fu_full::SimdFloatCmp                 0      0.00%     34.59% # attempts to use FU when none available
system.cpu.iq.fu_full::SimdFloatCvt                 0      0.00%     34.59% # attempts to use FU when none available
system.cpu.iq.fu_full::SimdFloatDiv                 0      0.00%     34.59% # attempts to use FU when none available
system.cpu.iq.fu_full::SimdFloatMisc                0      0.00%     34.59% # attempts to use FU when none available
system.cpu.iq.fu_full::SimdFloatMult                0      0.00%     34.59% # attempts to use FU when none available
system.cpu.iq.fu_full::SimdFloatMultAcc             0      0.00%     34.59% # attempts to use FU when none available
system.cpu.iq.fu_full::SimdFloatSqrt                0      0.00%     34.59% # attempts to use FU when none available
system.cpu.iq.fu_full::SimdReduceAdd                0      0.00%     34.59% # attempts to use FU when none available
system.cpu.iq.fu_full::SimdReduceAlu                0      0.00%     34.59% # attempts to use FU when none available
system.cpu.iq.fu_full::SimdReduceCmp                0      0.00%     34.59% # attempts to use FU when none available
system.cpu.iq.fu_full::SimdFloatReduceAdd            0      0.00%     34.59% # attempts to use FU when none available
system.cpu.iq.fu_full::SimdFloatReduceCmp            0      0.00%     34.59% # attempts to use FU when none available
system.cpu.iq.fu_full::SimdAes                      0      0.00%     34.59% # attempts to use FU when none available
system.cpu.iq.fu_full::SimdAesMix                   0      0.00%     34.59% # attempts to use FU when none available
system.cpu.iq.fu_full::SimdSha1Hash                 0      0.00%     34.59% # attempts to use FU when none available
system.cpu.iq.fu_full::SimdSha1Hash2                0      0.00%     34.59% # attempts to use FU when none available
system.cpu.iq.fu_full::SimdSha256Hash               0      0.00%     34.59% # attempts to use FU when none available
system.cpu.iq.fu_full::SimdSha256Hash2              0      0.00%     34.59% # attempts to use FU when none available
system.cpu.iq.fu_full::SimdShaSigma2                0      0.00%     34.59% # attempts to use FU when none available
system.cpu.iq.fu_full::SimdShaSigma3                0      0.00%     34.59% # attempts to use FU when none available
system.cpu.iq.fu_full::SimdPredAlu                  0      0.00%     34.59% # attempts to use FU when none available
system.cpu.iq.fu_full::MemRead                    118     21.26%     55.86% # attempts to use FU when none available
system.cpu.iq.fu_full::MemWrite                   245     44.14%    100.00% # attempts to use FU when none available
system.cpu.iq.fu_full::FloatMemRead                 0      0.00%    100.00% # attempts to use FU when none available
system.cpu.iq.fu_full::FloatMemWrite                0      0.00%    100.00% # attempts to use FU when none available
system.cpu.iq.fu_full::IprAccess                    0      0.00%    100.00% # attempts to use FU when none available
system.cpu.iq.fu_full::InstPrefetch                 0      0.00%    100.00% # attempts to use FU when none available
system.cpu.iq.int_alu_accesses                  38309                       # Number of integer alu accesses
system.cpu.iq.int_inst_queue_reads             118302                       # Number of integer instruction queue reads
system.cpu.iq.int_inst_queue_wakeup_accesses        35311                       # Number of integer instruction queue wakeup accesses
system.cpu.iq.int_inst_queue_writes             54736                       # Number of integer instruction queue writes
system.cpu.iq.iqInstsAdded                      41879                       # Number of instructions added to the IQ (excludes non-spec)
system.cpu.iq.iqInstsIssued                     38291                       # Number of instructions issued
system.cpu.iq.iqNonSpecInstsAdded                  89                       # Number of non-speculative instructions added to the IQ
system.cpu.iq.iqSquashedInstsExamined           13517                       # Number of squashed instructions iterated over during squash; mainly for profiling
system.cpu.iq.iqSquashedInstsIssued               145                       # Number of squashed instructions issued
system.cpu.iq.iqSquashedNonSpecRemoved             35                       # Number of squashed non-spec instructions that were removed
system.cpu.iq.iqSquashedOperandsExamined         8997                       # Number of squashed operands that are examined and possibly removed from graph
system.cpu.iq.issued_per_cycle::samples         42094                       # Number of insts issued each cycle
system.cpu.iq.issued_per_cycle::mean         0.909655                       # Number of insts issued each cycle
system.cpu.iq.issued_per_cycle::stdev        1.761107                       # Number of insts issued each cycle
system.cpu.iq.issued_per_cycle::underflows            0      0.00%      0.00% # Number of insts issued each cycle
system.cpu.iq.issued_per_cycle::0               29929     71.10%     71.10% # Number of insts issued each cycle
system.cpu.iq.issued_per_cycle::1                2997      7.12%     78.22% # Number of insts issued each cycle
system.cpu.iq.issued_per_cycle::2                2546      6.05%     84.27% # Number of insts issued each cycle
system.cpu.iq.issued_per_cycle::3                2071      4.92%     89.19% # Number of insts issued each cycle
system.cpu.iq.issued_per_cycle::4                1657      3.94%     93.12% # Number of insts issued each cycle
system.cpu.iq.issued_per_cycle::5                1133      2.69%     95.82% # Number of insts issued each cycle
system.cpu.iq.issued_per_cycle::6                 951      2.26%     98.08% # Number of insts issued each cycle
system.cpu.iq.issued_per_cycle::7                 490      1.16%     99.24% # Number of insts issued each cycle
system.cpu.iq.issued_per_cycle::8                 320      0.76%    100.00% # Number of insts issued each cycle
system.cpu.iq.issued_per_cycle::overflows            0      0.00%    100.00% # Number of insts issued each cycle
system.cpu.iq.issued_per_cycle::min_value            0                       # Number of insts issued each cycle
system.cpu.iq.issued_per_cycle::max_value            8                       # Number of insts issued each cycle
system.cpu.iq.issued_per_cycle::total           42094                       # Number of insts issued each cycle
system.cpu.iq.rate                           0.336704                       # Inst issue rate
system.cpu.iq.vec_alu_accesses                    529                       # Number of vector alu accesses
system.cpu.iq.vec_inst_queue_reads               1074                       # Number of vector instruction queue reads
system.cpu.iq.vec_inst_queue_wakeup_accesses          462                       # Number of vector instruction queue wakeup accesses
system.cpu.iq.vec_inst_queue_writes               769                       # Number of vector instruction queue writes
system.cpu.itb.accesses                             0                       # DTB accesses
system.cpu.itb.align_faults                         0                       # Number of TLB faults due to alignment restrictions
system.cpu.itb.domain_faults                        0                       # Number of TLB faults due to domain restrictions
system.cpu.itb.flush_entries                        0                       # Number of entries that have been flushed from TLB
system.cpu.itb.flush_tlb                            0                       # Number of times complete TLB was flushed
system.cpu.itb.flush_tlb_asid                       0                       # Number of times TLB was flushed by ASID
system.cpu.itb.flush_tlb_mva                        0                       # Number of times TLB was flushed by MVA
system.cpu.itb.flush_tlb_mva_asid                   0                       # Number of times TLB was flushed by MVA & ASID
system.cpu.itb.hits                                 0                       # DTB hits
system.cpu.itb.inst_accesses                        0                       # ITB inst accesses
system.cpu.itb.inst_hits                            0                       # ITB inst hits
system.cpu.itb.inst_misses                          0                       # ITB inst misses
system.cpu.itb.misses                               0                       # DTB misses
system.cpu.itb.perms_faults                         0                       # Number of TLB faults due to permissions restrictions
system.cpu.itb.prefetch_faults                      0                       # Number of TLB faults due to prefetch
system.cpu.itb.read_accesses                        0                       # DTB read accesses
system.cpu.itb.read_hits                            0                       # DTB read hits
system.cpu.itb.read_misses                          0                       # DTB read misses
system.cpu.itb.stage2_mmu.stage2_tlb.accesses            0                       # DTB accesses
system.cpu.itb.stage2_mmu.stage2_tlb.align_faults            0                       # Number of TLB faults due to alignment restrictions
system.cpu.itb.stage2_mmu.stage2_tlb.domain_faults            0                       # Number of TLB faults due to domain restrictions
system.cpu.itb.stage2_mmu.stage2_tlb.flush_entries            0                       # Number of entries that have been flushed from TLB
system.cpu.itb.stage2_mmu.stage2_tlb.flush_tlb            0                       # Number of times complete TLB was flushed
system.cpu.itb.stage2_mmu.stage2_tlb.flush_tlb_asid            0                       # Number of times TLB was flushed by ASID
system.cpu.itb.stage2_mmu.stage2_tlb.flush_tlb_mva            0                       # Number of times TLB was flushed by MVA
system.cpu.itb.stage2_mmu.stage2_tlb.flush_tlb_mva_asid            0                       # Number of times TLB was flushed by MVA & ASID
system.cpu.itb.stage2_mmu.stage2_tlb.hits            0                       # DTB hits
system.cpu.itb.stage2_mmu.stage2_tlb.inst_accesses            0                       # ITB inst accesses
system.cpu.itb.stage2_mmu.stage2_tlb.inst_hits            0                       # ITB inst hits
system.cpu.itb.stage2_mmu.stage2_tlb.inst_misses            0                       # ITB inst misses
system.cpu.itb.stage2_mmu.stage2_tlb.misses            0                       # DTB misses
system.cpu.itb.stage2_mmu.stage2_tlb.perms_faults            0                       # Number of TLB faults due to permissions restrictions
system.cpu.itb.stage2_mmu.stage2_tlb.prefetch_faults            0                       # Number of TLB faults due to prefetch
system.cpu.itb.stage2_mmu.stage2_tlb.read_accesses            0                       # DTB read accesses
system.cpu.itb.stage2_mmu.stage2_tlb.read_hits            0                       # DTB read hits
system.cpu.itb.stage2_mmu.stage2_tlb.read_misses            0                       # DTB read misses
system.cpu.itb.stage2_mmu.stage2_tlb.walker.walkRequestOrigin_Requested::Data            0                       # Table walker requests started/completed, data/inst
system.cpu.itb.stage2_mmu.stage2_tlb.walker.walkRequestOrigin_Requested::Inst            0                       # Table walker requests started/completed, data/inst
system.cpu.itb.stage2_mmu.stage2_tlb.walker.walkRequestOrigin_Requested::total            0                       # Table walker requests started/completed, data/inst
system.cpu.itb.stage2_mmu.stage2_tlb.walker.walkRequestOrigin_Completed::Data            0                       # Table walker requests started/completed, data/inst
system.cpu.itb.stage2_mmu.stage2_tlb.walker.walkRequestOrigin_Completed::Inst            0                       # Table walker requests started/completed, data/inst
system.cpu.itb.stage2_mmu.stage2_tlb.walker.walkRequestOrigin_Completed::total            0                       # Table walker requests started/completed, data/inst
system.cpu.itb.stage2_mmu.stage2_tlb.walker.walkRequestOrigin::total            0                       # Table walker requests started/completed, data/inst
system.cpu.itb.stage2_mmu.stage2_tlb.walker.walks            0                       # Table walker walks requested
system.cpu.itb.stage2_mmu.stage2_tlb.write_accesses            0                       # DTB write accesses
system.cpu.itb.stage2_mmu.stage2_tlb.write_hits            0                       # DTB write hits
system.cpu.itb.stage2_mmu.stage2_tlb.write_misses            0                       # DTB write misses
system.cpu.itb.walker.walkRequestOrigin_Requested::Data            0                       # Table walker requests started/completed, data/inst
system.cpu.itb.walker.walkRequestOrigin_Requested::Inst            0                       # Table walker requests started/completed, data/inst
system.cpu.itb.walker.walkRequestOrigin_Requested::total            0                       # Table walker requests started/completed, data/inst
system.cpu.itb.walker.walkRequestOrigin_Completed::Data            0                       # Table walker requests started/completed, data/inst
system.cpu.itb.walker.walkRequestOrigin_Completed::Inst            0                       # Table walker requests started/completed, data/inst
system.cpu.itb.walker.walkRequestOrigin_Completed::total            0                       # Table walker requests started/completed, data/inst
system.cpu.itb.walker.walkRequestOrigin::total            0                       # Table walker requests started/completed, data/inst
system.cpu.itb.walker.walks                         0                       # Table walker walks requested
system.cpu.itb.write_accesses                       0                       # DTB write accesses
system.cpu.itb.write_hits                           0                       # DTB write hits
system.cpu.itb.write_misses                         0                       # DTB write misses
system.cpu.memDep0.conflictingLoads                24                       # Number of conflicting loads.
system.cpu.memDep0.conflictingStores               34                       # Number of conflicting stores.
system.cpu.memDep0.insertedLoads                 6339                       # Number of loads inserted to the mem dependence unit.
system.cpu.memDep0.insertedStores                6321                       # Number of stores inserted to the mem dependence unit.
system.cpu.misc_regfile_reads                   28736                       # number of misc regfile reads
system.cpu.misc_regfile_writes                    145                       # number of misc regfile writes
system.cpu.numCycles                           113723                       # number of cpu cycles simulated
system.cpu.numWorkItemsCompleted                    0                       # number of work items this cpu completed
system.cpu.numWorkItemsStarted                      0                       # number of work items this cpu started
system.cpu.rename.BlockCycles                    3701                       # Number of cycles rename is blocking
system.cpu.rename.CommittedMaps                 26781                       # Number of HB maps that are committed
system.cpu.rename.IQFullEvents                    202                       # Number of times rename has blocked due to IQ full
system.cpu.rename.IdleCycles                    20563                       # Number of cycles rename is idle
system.cpu.rename.LQFullEvents                    132                       # Number of times rename has blocked due to LQ full
system.cpu.rename.ROBFullEvents                     1                       # Number of times rename has blocked due to ROB full
system.cpu.rename.RenameLookups                 64176                       # Number of register rename lookups that rename has made
system.cpu.rename.RenamedInsts                  44669                       # Number of instructions processed by rename
system.cpu.rename.RenamedOperands               42396                       # Number of destination operands rename has renamed
system.cpu.rename.RunCycles                      7626                       # Number of cycles rename is running
system.cpu.rename.SQFullEvents                    751                       # Number of times rename has blocked due to SQ full
system.cpu.rename.SquashCycles                    869                       # Number of cycles rename is squashing
system.cpu.rename.UnblockCycles                  1430                       # Number of cycles rename is unblocking
system.cpu.rename.UndoneMaps                    15615                       # Number of HB maps that are undone due to squashing
system.cpu.rename.int_rename_lookups            49589                       # Number of integer rename lookups
system.cpu.rename.serializeStallCycles           7905                       # count of cycles rename stalled for serializing inst
system.cpu.rename.serializingInsts                302                       # count of serializing insts renamed
system.cpu.rename.skidInsts                      3721                       # count of insts added to the skid buffer
system.cpu.rename.tempSerializingInsts             88                       # count of temporary serializing insts renamed
system.cpu.rename.vec_rename_lookups              688                       # Number of vector rename lookups
system.cpu.rob.rob_reads                        80411                       # The number of ROB reads
system.cpu.rob.rob_writes                       86307                       # The number of ROB writes
system.cpu.timesIdled                             663                       # Number of times that the entire CPU went into an idle state and unscheduled itself
system.cpu.vec_regfile_reads                      512                       # number of vector regfile reads
system.cpu.vec_regfile_writes                     137                       # number of vector regfile writes
system.cpu.workload.numSyscalls                    17                       # Number of system calls
system.membus.snoop_filter.hit_multi_requests            0                       # Number of requests hitting in the snoop filter with multiple (>1) holders of the requested data.
system.membus.snoop_filter.hit_multi_snoops            0                       # Number of snoops hitting in the snoop filter with multiple (>1) holders of the requested data.
system.membus.snoop_filter.hit_single_requests            0                       # Number of requests hitting in the snoop filter with a single holder of the requested data.
system.membus.snoop_filter.hit_single_snoops            0                       # Number of snoops hitting in the snoop filter with a single holder of the requested data.
system.membus.snoop_filter.tot_requests          1251                       # Total number of requests made to the snoop filter.
system.membus.snoop_filter.tot_snoops               0                       # Total number of snoops made to the snoop filter.
system.tol2bus.snoop_filter.hit_multi_requests            0                       # Number of requests hitting in the snoop filter with multiple (>1) holders of the requested data.
system.tol2bus.snoop_filter.hit_multi_snoops            0                       # Number of snoops hitting in the snoop filter with multiple (>1) holders of the requested data.
system.tol2bus.snoop_filter.hit_single_requests          502                       # Number of requests hitting in the snoop filter with a single holder of the requested data.
system.tol2bus.snoop_filter.hit_single_snoops            0                       # Number of snoops hitting in the snoop filter with a single holder of the requested data.
system.tol2bus.snoop_filter.tot_requests         1817                       # Total number of requests made to the snoop filter.
system.tol2bus.snoop_filter.tot_snoops              0                       # Total number of snoops made to the snoop filter.
system.membus.trans_dist::ReadResp               1026                       # Transaction distribution
system.membus.trans_dist::ReadExReq               168                       # Transaction distribution
system.membus.trans_dist::ReadExResp              168                       # Transaction distribution
system.membus.trans_dist::ReadSharedReq          1027                       # Transaction distribution
system.membus.trans_dist::InvalidateReq            56                       # Transaction distribution
system.membus.pkt_count_system.l2.mem_side::system.mem_ctrls.port         2445                       # Packet count per connected master and slave (bytes)
system.membus.pkt_count::total                   2445                       # Packet count per connected master and slave (bytes)
system.membus.pkt_size_system.l2.mem_side::system.mem_ctrls.port        76416                       # Cumulative packet size per connected master and slave (bytes)
system.membus.pkt_size::total                   76416                       # Cumulative packet size per connected master and slave (bytes)
system.membus.snoops                                0                       # Total snoops (count)
system.membus.snoopTraffic                          0                       # Total snoop traffic (bytes)
system.membus.snoop_fanout::samples              1251                       # Request fanout histogram
system.membus.snoop_fanout::mean                    0                       # Request fanout histogram
system.membus.snoop_fanout::stdev                   0                       # Request fanout histogram
system.membus.snoop_fanout::underflows              0      0.00%      0.00% # Request fanout histogram
system.membus.snoop_fanout::0                    1251    100.00%    100.00% # Request fanout histogram
system.membus.snoop_fanout::1                       0      0.00%    100.00% # Request fanout histogram
system.membus.snoop_fanout::overflows               0      0.00%    100.00% # Request fanout histogram
system.membus.snoop_fanout::min_value               0                       # Request fanout histogram
system.membus.snoop_fanout::max_value               0                       # Request fanout histogram
system.membus.snoop_fanout::total                1251                       # Request fanout histogram
system.membus.reqLayer0.occupancy             1533000                       # Layer occupancy (ticks)
system.membus.reqLayer0.utilization               2.7                       # Layer utilization (%)
system.membus.respLayer1.occupancy            6321500                       # Layer occupancy (ticks)
system.membus.respLayer1.utilization             11.1                       # Layer utilization (%)
system.membus.power_state.pwrStateResidencyTicks::UNDEFINED     56861000                       # Cumulative time (in ticks) in various power states
system.tol2bus.trans_dist::ReadResp              1089                       # Transaction distribution
system.tol2bus.trans_dist::WritebackDirty           27                       # Transaction distribution
system.tol2bus.trans_dist::WritebackClean          440                       # Transaction distribution
system.tol2bus.trans_dist::CleanEvict              33                       # Transaction distribution
system.tol2bus.trans_dist::ReadExReq              171                       # Transaction distribution
system.tol2bus.trans_dist::ReadExResp             171                       # Transaction distribution
system.tol2bus.trans_dist::ReadCleanReq           925                       # Transaction distribution
system.tol2bus.trans_dist::ReadSharedReq          165                       # Transaction distribution
system.tol2bus.trans_dist::InvalidateReq           56                       # Transaction distribution
system.tol2bus.trans_dist::InvalidateResp           56                       # Transaction distribution
system.tol2bus.pkt_count_system.cpu.icache.mem_side::system.l2.cpu_side         2289                       # Packet count per connected master and slave (bytes)
system.tol2bus.pkt_count_system.cpu.dcache.mem_side::system.l2.cpu_side          844                       # Packet count per connected master and slave (bytes)
system.tol2bus.pkt_count::total                  3133                       # Packet count per connected master and slave (bytes)
system.tol2bus.pkt_size_system.cpu.icache.mem_side::system.l2.cpu_side        87296                       # Cumulative packet size per connected master and slave (bytes)
system.tol2bus.pkt_size_system.cpu.dcache.mem_side::system.l2.cpu_side        23232                       # Cumulative packet size per connected master and slave (bytes)
system.tol2bus.pkt_size::total                 110528                       # Cumulative packet size per connected master and slave (bytes)
system.tol2bus.snoops                               0                       # Total snoops (count)
system.tol2bus.snoopTraffic                         0                       # Total snoop traffic (bytes)
system.tol2bus.snoop_fanout::samples             1317                       # Request fanout histogram
system.tol2bus.snoop_fanout::mean            0.001519                       # Request fanout histogram
system.tol2bus.snoop_fanout::stdev           0.038954                       # Request fanout histogram
system.tol2bus.snoop_fanout::underflows             0      0.00%      0.00% # Request fanout histogram
system.tol2bus.snoop_fanout::0                   1315     99.85%     99.85% # Request fanout histogram
system.tol2bus.snoop_fanout::1                      2      0.15%    100.00% # Request fanout histogram
system.tol2bus.snoop_fanout::2                      0      0.00%    100.00% # Request fanout histogram
system.tol2bus.snoop_fanout::overflows              0      0.00%    100.00% # Request fanout histogram
system.tol2bus.snoop_fanout::min_value              0                       # Request fanout histogram
system.tol2bus.snoop_fanout::max_value              1                       # Request fanout histogram
system.tol2bus.snoop_fanout::total               1317                       # Request fanout histogram
system.tol2bus.reqLayer0.occupancy            1375500                       # Layer occupancy (ticks)
system.tol2bus.reqLayer0.utilization              2.4                       # Layer utilization (%)
system.tol2bus.respLayer1.occupancy            532000                       # Layer occupancy (ticks)
system.tol2bus.respLayer1.utilization             0.9                       # Layer utilization (%)
system.tol2bus.respLayer0.occupancy           1386000                       # Layer occupancy (ticks)
system.tol2bus.respLayer0.utilization             2.4                       # Layer utilization (%)
system.tol2bus.power_state.pwrStateResidencyTicks::UNDEFINED     56861000                       # Cumulative time (in ticks) in various power states
system.voltage_domain.voltage                       1                       # Voltage in Volts
system.clk_domain.clock                          1000                       # Clock period in ticks
system.l2.demand_hits::.cpu.inst                   42                       # number of demand (read+write) hits
system.l2.demand_hits::.cpu.data                   24                       # number of demand (read+write) hits
system.l2.demand_hits::total                       66                       # number of demand (read+write) hits
system.l2.overall_hits::.cpu.inst                  42                       # number of overall hits
system.l2.overall_hits::.cpu.data                  24                       # number of overall hits
system.l2.overall_hits::total                      66                       # number of overall hits
system.l2.demand_misses::.cpu.inst                883                       # number of demand (read+write) misses
system.l2.demand_misses::.cpu.data                312                       # number of demand (read+write) misses
system.l2.demand_misses::total                   1195                       # number of demand (read+write) misses
system.l2.overall_misses::.cpu.inst               883                       # number of overall misses
system.l2.overall_misses::.cpu.data               312                       # number of overall misses
system.l2.overall_misses::total                  1195                       # number of overall misses
system.l2.demand_miss_latency::.cpu.inst     68520500                       # number of demand (read+write) miss cycles
system.l2.demand_miss_latency::.cpu.data     25782500                       # number of demand (read+write) miss cycles
system.l2.demand_miss_latency::total         94303000                       # number of demand (read+write) miss cycles
system.l2.overall_miss_latency::.cpu.inst     68520500                       # number of overall miss cycles
system.l2.overall_miss_latency::.cpu.data     25782500                       # number of overall miss cycles
system.l2.overall_miss_latency::total        94303000                       # number of overall miss cycles
system.l2.demand_accesses::.cpu.inst              925                       # number of demand (read+write) accesses
system.l2.demand_accesses::.cpu.data              336                       # number of demand (read+write) accesses
system.l2.demand_accesses::total                 1261                       # number of demand (read+write) accesses
system.l2.overall_accesses::.cpu.inst             925                       # number of overall (read+write) accesses
system.l2.overall_accesses::.cpu.data             336                       # number of overall (read+write) accesses
system.l2.overall_accesses::total                1261                       # number of overall (read+write) accesses
system.l2.demand_miss_rate::.cpu.inst        0.954595                       # miss rate for demand accesses
system.l2.demand_miss_rate::.cpu.data        0.928571                       # miss rate for demand accesses
system.l2.demand_miss_rate::total            0.947661                       # miss rate for demand accesses
system.l2.overall_miss_rate::.cpu.inst       0.954595                       # miss rate for overall accesses
system.l2.overall_miss_rate::.cpu.data       0.928571                       # miss rate for overall accesses
[...]
system.cpu.dcache.overall_miss_latency::.cpu.data     85332929                       # number of overall miss cycles
system.cpu.dcache.overall_miss_latency::total     85332929                       # number of overall miss cycles
system.cpu.dcache.demand_accesses::.cpu.data        10069                       # number of demand (read+write) accesses
system.cpu.dcache.demand_accesses::total        10069                       # number of demand (read+write) accesses
system.cpu.dcache.overall_accesses::.cpu.data        10095                       # number of overall (read+write) accesses
system.cpu.dcache.overall_accesses::total        10095                       # number of overall (read+write) accesses
system.cpu.dcache.demand_miss_rate::.cpu.data     0.129308                       # miss rate for demand accesses
system.cpu.dcache.demand_miss_rate::total     0.129308                       # miss rate for demand accesses
system.cpu.dcache.overall_miss_rate::.cpu.data     0.129371                       # miss rate for overall accesses
system.cpu.dcache.overall_miss_rate::total     0.129371                       # miss rate for overall accesses
system.cpu.dcache.demand_avg_miss_latency::.cpu.data 65539.884025                       # average overall miss latency
system.cpu.dcache.demand_avg_miss_latency::total 65539.884025                       # average overall miss latency
system.cpu.dcache.overall_avg_miss_latency::.cpu.data 65339.149311                       # average overall miss latency
system.cpu.dcache.overall_avg_miss_latency::total 65339.149311                       # average overall miss latency
system.cpu.dcache.blocked_cycles::no_mshrs         3235                       # number of cycles access was blocked
system.cpu.dcache.blocked_cycles::no_targets            0                       # number of cycles access was blocked
system.cpu.dcache.blocked::no_mshrs                98                       # number of cycles access was blocked
system.cpu.dcache.blocked::no_targets               0                       # number of cycles access was blocked
system.cpu.dcache.avg_blocked_cycles::no_mshrs    33.010204                       # average number of cycles each access was blocked
system.cpu.dcache.avg_blocked_cycles::no_targets          nan                       # average number of cycles each access was blocked
system.cpu.dcache.writebacks::.writebacks           27                       # number of writebacks
system.cpu.dcache.writebacks::total                27                       # number of writebacks
system.cpu.dcache.demand_mshr_hits::.cpu.data          915                       # number of demand (read+write) MSHR hits
system.cpu.dcache.demand_mshr_hits::total          915                       # number of demand (read+write) MSHR hits
system.cpu.dcache.overall_mshr_hits::.cpu.data          915                       # number of overall MSHR hits
system.cpu.dcache.overall_mshr_hits::total          915                       # number of overall MSHR hits
system.cpu.dcache.demand_mshr_misses::.cpu.data          387                       # number of demand (read+write) MSHR misses
system.cpu.dcache.demand_mshr_misses::total          387                       # number of demand (read+write) MSHR misses
system.cpu.dcache.overall_mshr_misses::.cpu.data          391                       # number of overall MSHR misses
system.cpu.dcache.overall_mshr_misses::total          391                       # number of overall MSHR misses
system.cpu.dcache.demand_mshr_miss_latency::.cpu.data     27768467                       # number of demand (read+write) MSHR miss cycles
system.cpu.dcache.demand_mshr_miss_latency::total     27768467                       # number of demand (read+write) MSHR miss cycles
system.cpu.dcache.overall_mshr_miss_latency::.cpu.data     28171467                       # number of overall MSHR miss cycles
system.cpu.dcache.overall_mshr_miss_latency::total     28171467                       # number of overall MSHR miss cycles
system.cpu.dcache.demand_mshr_miss_rate::.cpu.data     0.038435                       # mshr miss rate for demand accesses
system.cpu.dcache.demand_mshr_miss_rate::total     0.038435                       # mshr miss rate for demand accesses
system.cpu.dcache.overall_mshr_miss_rate::.cpu.data     0.038732                       # mshr miss rate for overall accesses
system.cpu.dcache.overall_mshr_miss_rate::total     0.038732                       # mshr miss rate for overall accesses
system.cpu.dcache.demand_avg_mshr_miss_latency::.cpu.data 71753.144703                       # average overall mshr miss latency
system.cpu.dcache.demand_avg_mshr_miss_latency::total 71753.144703                       # average overall mshr miss latency
system.cpu.dcache.overall_avg_mshr_miss_latency::.cpu.data 72049.787724                       # average overall mshr miss latency
system.cpu.dcache.overall_avg_mshr_miss_latency::total 72049.787724                       # average overall mshr miss latency
system.cpu.dcache.replacements                     60                       # number of replacements
system.cpu.dcache.ReadReq_hits::.cpu.data         5042                       # number of ReadReq hits
system.cpu.dcache.ReadReq_hits::total            5042                       # number of ReadReq hits
system.cpu.dcache.ReadReq_misses::.cpu.data          397                       # number of ReadReq misses
system.cpu.dcache.ReadReq_misses::total           397                       # number of ReadReq misses
system.cpu.dcache.ReadReq_miss_latency::.cpu.data     26851000                       # number of ReadReq miss cycles
system.cpu.dcache.ReadReq_miss_latency::total     26851000                       # number of ReadReq miss cycles
system.cpu.dcache.ReadReq_accesses::.cpu.data         5439                       # number of ReadReq accesses(hits+misses)
system.cpu.dcache.ReadReq_accesses::total         5439                       # number of ReadReq accesses(hits+misses)
system.cpu.dcache.ReadReq_miss_rate::.cpu.data     0.072991                       # miss rate for ReadReq accesses
system.cpu.dcache.ReadReq_miss_rate::total     0.072991                       # miss rate for ReadReq accesses
system.cpu.dcache.ReadReq_avg_miss_latency::.cpu.data 67634.760705                       # average ReadReq miss latency
system.cpu.dcache.ReadReq_avg_miss_latency::total 67634.760705                       # average ReadReq miss latency
system.cpu.dcache.ReadReq_mshr_hits::.cpu.data          237                       # number of ReadReq MSHR hits
system.cpu.dcache.ReadReq_mshr_hits::total          237                       # number of ReadReq MSHR hits
system.cpu.dcache.ReadReq_mshr_misses::.cpu.data          160                       # number of ReadReq MSHR misses
system.cpu.dcache.ReadReq_mshr_misses::total          160                       # number of ReadReq MSHR misses
system.cpu.dcache.ReadReq_mshr_miss_latency::.cpu.data     12382500                       # number of ReadReq MSHR miss cycles
system.cpu.dcache.ReadReq_mshr_miss_latency::total     12382500                       # number of ReadReq MSHR miss cycles
system.cpu.dcache.ReadReq_mshr_miss_rate::.cpu.data     0.029417                       # mshr miss rate for ReadReq accesses
system.cpu.dcache.ReadReq_mshr_miss_rate::total     0.029417                       # mshr miss rate for ReadReq accesses
system.cpu.dcache.ReadReq_avg_mshr_miss_latency::.cpu.data 77390.625000                       # average ReadReq mshr miss latency
system.cpu.dcache.ReadReq_avg_mshr_miss_latency::total 77390.625000                       # average ReadReq mshr miss latency
system.cpu.dcache.WriteReq_hits::.cpu.data         3725                       # number of WriteReq hits
system.cpu.dcache.WriteReq_hits::total           3725                       # number of WriteReq hits
system.cpu.dcache.WriteReq_misses::.cpu.data          854                       # number of WriteReq misses
system.cpu.dcache.WriteReq_misses::total          854                       # number of WriteReq misses
system.cpu.dcache.WriteReq_miss_latency::.cpu.data     56857956                       # number of WriteReq miss cycles
system.cpu.dcache.WriteReq_miss_latency::total     56857956                       # number of WriteReq miss cycles
system.cpu.dcache.WriteReq_accesses::.cpu.data         4579                       # number of WriteReq accesses(hits+misses)
system.cpu.dcache.WriteReq_accesses::total         4579                       # number of WriteReq accesses(hits+misses)
system.cpu.dcache.WriteReq_miss_rate::.cpu.data     0.186504                       # miss rate for WriteReq accesses
system.cpu.dcache.WriteReq_miss_rate::total     0.186504                       # miss rate for WriteReq accesses
system.cpu.dcache.WriteReq_avg_miss_latency::.cpu.data 66578.402810                       # average WriteReq miss latency
system.cpu.dcache.WriteReq_avg_miss_latency::total 66578.402810                       # average WriteReq miss latency
system.cpu.dcache.WriteReq_mshr_hits::.cpu.data          678                       # number of WriteReq MSHR hits
system.cpu.dcache.WriteReq_mshr_hits::total          678                       # number of WriteReq MSHR hits
system.cpu.dcache.WriteReq_mshr_misses::.cpu.data          176                       # number of WriteReq MSHR misses
system.cpu.dcache.WriteReq_mshr_misses::total          176                       # number of WriteReq MSHR misses
system.cpu.dcache.WriteReq_mshr_miss_latency::.cpu.data     13812994                       # number of WriteReq MSHR miss cycles
system.cpu.dcache.WriteReq_mshr_miss_latency::total     13812994                       # number of WriteReq MSHR miss cycles
system.cpu.dcache.WriteReq_mshr_miss_rate::.cpu.data     0.038436                       # mshr miss rate for WriteReq accesses
system.cpu.dcache.WriteReq_mshr_miss_rate::total     0.038436                       # mshr miss rate for WriteReq accesses
system.cpu.dcache.WriteReq_avg_mshr_miss_latency::.cpu.data 78482.920455                       # average WriteReq mshr miss latency
system.cpu.dcache.WriteReq_avg_mshr_miss_latency::total 78482.920455                       # average WriteReq mshr miss latency
system.cpu.dcache.SoftPFReq_hits::.cpu.data           22                       # number of SoftPFReq hits
system.cpu.dcache.SoftPFReq_hits::total            22                       # number of SoftPFReq hits
system.cpu.dcache.SoftPFReq_misses::.cpu.data            4                       # number of SoftPFReq misses
system.cpu.dcache.SoftPFReq_misses::total            4                       # number of SoftPFReq misses
system.cpu.dcache.SoftPFReq_accesses::.cpu.data           26                       # number of SoftPFReq accesses(hits+misses)
system.cpu.dcache.SoftPFReq_accesses::total           26                       # number of SoftPFReq accesses(hits+misses)
system.cpu.dcache.SoftPFReq_miss_rate::.cpu.data     0.153846                       # miss rate for SoftPFReq accesses
system.cpu.dcache.SoftPFReq_miss_rate::total     0.153846                       # miss rate for SoftPFReq accesses
system.cpu.dcache.SoftPFReq_mshr_misses::.cpu.data            4                       # number of SoftPFReq MSHR misses
system.cpu.dcache.SoftPFReq_mshr_misses::total            4                       # number of SoftPFReq MSHR misses
system.cpu.dcache.SoftPFReq_mshr_miss_latency::.cpu.data       403000                       # number of SoftPFReq MSHR miss cycles
system.cpu.dcache.SoftPFReq_mshr_miss_latency::total       403000                       # number of SoftPFReq MSHR miss cycles
system.cpu.dcache.SoftPFReq_mshr_miss_rate::.cpu.data     0.153846                       # mshr miss rate for SoftPFReq accesses
system.cpu.dcache.SoftPFReq_mshr_miss_rate::total     0.153846                       # mshr miss rate for SoftPFReq accesses
system.cpu.dcache.SoftPFReq_avg_mshr_miss_latency::.cpu.data       100750                       # average SoftPFReq mshr miss latency
system.cpu.dcache.SoftPFReq_avg_mshr_miss_latency::total       100750                       # average SoftPFReq mshr miss latency
system.cpu.dcache.WriteLineReq_misses::.cpu.data           51                       # number of WriteLineReq misses
system.cpu.dcache.WriteLineReq_misses::total           51                       # number of WriteLineReq misses
system.cpu.dcache.WriteLineReq_miss_latency::.cpu.data      1623973                       # number of WriteLineReq miss cycles
system.cpu.dcache.WriteLineReq_miss_latency::total      1623973                       # number of WriteLineReq miss cycles
system.cpu.dcache.WriteLineReq_accesses::.cpu.data           51                       # number of WriteLineReq accesses(hits+misses)
system.cpu.dcache.WriteLineReq_accesses::total           51                       # number of WriteLineReq accesses(hits+misses)
system.cpu.dcache.WriteLineReq_miss_rate::.cpu.data            1                       # miss rate for WriteLineReq accesses
system.cpu.dcache.WriteLineReq_miss_rate::total            1                       # miss rate for WriteLineReq accesses
system.cpu.dcache.WriteLineReq_avg_miss_latency::.cpu.data 31842.607843                       # average WriteLineReq miss latency
system.cpu.dcache.WriteLineReq_avg_miss_latency::total 31842.607843                       # average WriteLineReq miss latency
system.cpu.dcache.WriteLineReq_mshr_misses::.cpu.data           51                       # number of WriteLineReq MSHR misses
system.cpu.dcache.WriteLineReq_mshr_misses::total           51                       # number of WriteLineReq MSHR misses
system.cpu.dcache.WriteLineReq_mshr_miss_latency::.cpu.data      1572973                       # number of WriteLineReq MSHR miss cycles
system.cpu.dcache.WriteLineReq_mshr_miss_latency::total      1572973                       # number of WriteLineReq MSHR miss cycles
system.cpu.dcache.WriteLineReq_mshr_miss_rate::.cpu.data            1                       # mshr miss rate for WriteLineReq accesses
system.cpu.dcache.WriteLineReq_mshr_miss_rate::total            1                       # mshr miss rate for WriteLineReq accesses
system.cpu.dcache.WriteLineReq_avg_mshr_miss_latency::.cpu.data 30842.607843                       # average WriteLineReq mshr miss latency
system.cpu.dcache.WriteLineReq_avg_mshr_miss_latency::total 30842.607843                       # average WriteLineReq mshr miss latency
system.cpu.dcache.LoadLockedReq_hits::.cpu.data           47                       # number of LoadLockedReq hits
system.cpu.dcache.LoadLockedReq_hits::total           47                       # number of LoadLockedReq hits
system.cpu.dcache.LoadLockedReq_misses::.cpu.data            2                       # number of LoadLockedReq misses
system.cpu.dcache.LoadLockedReq_misses::total            2                       # number of LoadLockedReq misses
system.cpu.dcache.LoadLockedReq_miss_latency::.cpu.data       117500                       # number of LoadLockedReq miss cycles
system.cpu.dcache.LoadLockedReq_miss_latency::total       117500                       # number of LoadLockedReq miss cycles
system.cpu.dcache.LoadLockedReq_accesses::.cpu.data           49                       # number of LoadLockedReq accesses(hits+misses)
system.cpu.dcache.LoadLockedReq_accesses::total           49                       # number of LoadLockedReq accesses(hits+misses)
system.cpu.dcache.LoadLockedReq_miss_rate::.cpu.data     0.040816                       # miss rate for LoadLockedReq accesses
system.cpu.dcache.LoadLockedReq_miss_rate::total     0.040816                       # miss rate for LoadLockedReq accesses
system.cpu.dcache.LoadLockedReq_avg_miss_latency::.cpu.data        58750                       # average LoadLockedReq miss latency
system.cpu.dcache.LoadLockedReq_avg_miss_latency::total        58750                       # average LoadLockedReq miss latency
system.cpu.dcache.LoadLockedReq_mshr_hits::.cpu.data            1                       # number of LoadLockedReq MSHR hits
system.cpu.dcache.LoadLockedReq_mshr_hits::total            1                       # number of LoadLockedReq MSHR hits
system.cpu.dcache.LoadLockedReq_mshr_misses::.cpu.data            1                       # number of LoadLockedReq MSHR misses
system.cpu.dcache.LoadLockedReq_mshr_misses::total            1                       # number of LoadLockedReq MSHR misses
system.cpu.dcache.LoadLockedReq_mshr_miss_latency::.cpu.data       103000                       # number of LoadLockedReq MSHR miss cycles
system.cpu.dcache.LoadLockedReq_mshr_miss_latency::total       103000                       # number of LoadLockedReq MSHR miss cycles
system.cpu.dcache.LoadLockedReq_mshr_miss_rate::.cpu.data     0.020408                       # mshr miss rate for LoadLockedReq accesses
system.cpu.dcache.LoadLockedReq_mshr_miss_rate::total     0.020408                       # mshr miss rate for LoadLockedReq accesses
system.cpu.dcache.LoadLockedReq_avg_mshr_miss_latency::.cpu.data       103000                       # average LoadLockedReq mshr miss latency
system.cpu.dcache.LoadLockedReq_avg_mshr_miss_latency::total       103000                       # average LoadLockedReq mshr miss latency
system.cpu.dcache.StoreCondReq_hits::.cpu.data           36                       # number of StoreCondReq hits
system.cpu.dcache.StoreCondReq_hits::total           36                       # number of StoreCondReq hits
system.cpu.dcache.StoreCondReq_accesses::.cpu.data           36                       # number of StoreCondReq accesses(hits+misses)
system.cpu.dcache.StoreCondReq_accesses::total           36                       # number of StoreCondReq accesses(hits+misses)
system.cpu.dcache.power_state.pwrStateResidencyTicks::UNDEFINED     56861000                       # Cumulative time (in ticks) in various power states
system.cpu.dcache.tags.tagsinuse           223.007274                       # Cycle average of tags in use
system.cpu.dcache.tags.total_refs                9264                       # Total number of references to valid blocks.
system.cpu.dcache.tags.sampled_refs               392                       # Sample count of references to valid blocks.
system.cpu.dcache.tags.avg_refs             23.632653                       # Average number of references to valid blocks.
system.cpu.dcache.tags.warmup_cycle            176500                       # Cycle when the warmup percentage was hit.
system.cpu.dcache.tags.occ_blocks::.cpu.data   223.007274                       # Average occupied blocks per requestor
system.cpu.dcache.tags.occ_percent::.cpu.data     0.435561                       # Average percentage of cache occupancy
system.cpu.dcache.tags.occ_percent::total     0.435561                       # Average percentage of cache occupancy
system.cpu.dcache.tags.occ_task_id_blocks::1024          332                       # Occupied blocks per task id
system.cpu.dcache.tags.age_task_id_blocks_1024::0           38                       # Occupied blocks per task id
system.cpu.dcache.tags.age_task_id_blocks_1024::1          294                       # Occupied blocks per task id
system.cpu.dcache.tags.occ_task_id_percent::1024     0.648438                       # Percentage of cache occupancy per task id
system.cpu.dcache.tags.tag_accesses             20752                       # Number of tag accesses
system.cpu.dcache.tags.data_accesses            20752                       # Number of data accesses
system.cpu.dcache.tags.power_state.pwrStateResidencyTicks::UNDEFINED     56861000                       # Cumulative time (in ticks) in various power states
system.cpu.power_state.pwrStateResidencyTicks::ON     56861000                       # Cumulative time (in ticks) in various power states

---------- End Simulation Statistics   ----------
