
---------- Begin Simulation Statistics ----------
final_tick                                  264682500                       # Number of ticks from beginning of simulation (restored from checkpoints and never reset)
host_inst_rate                                 153665                       # Simulator instruction rate (inst/s)
host_mem_usage                                 848696                       # Number of bytes of host memory used
host_op_rate                                   174405                       # Simulator op (including micro ops) rate (op/s)
host_seconds                                     3.25                       # Real time elapsed on the host
host_tick_rate                               81339337                       # Simulator tick rate (ticks/s)
sim_freq                                 1000000000000                       # Frequency of simulated ticks
sim_insts                                      500007                       # Number of instructions simulated
sim_ops                                        567519                       # Number of ops (including micro ops) simulated
sim_seconds                                  0.000265                       # Number of seconds simulated
sim_ticks                                   264682500                       # Number of ticks simulated
system.cpu.branchPred.BTBCorrect                    0                       # Number of correct BTB predictions (this stat may not work properly.
system.cpu.branchPred.BTBHitPct             97.973849                       # BTB Hit Percentage
system.cpu.branchPred.BTBHits                   46082                       # Number of BTB hits
system.cpu.branchPred.BTBLookups                47035                       # Number of BTB lookups
system.cpu.branchPred.RASInCorrect                  1                       # Number of incorrect RAS predictions.
system.cpu.branchPred.condIncorrect               800                       # Number of conditional branches incorrect
system.cpu.branchPred.condPredicted             92063                       # Number of conditional branches predicted
system.cpu.branchPred.indirectHits               1506                       # Number of indirect target hits.
system.cpu.branchPred.indirectLookups            1686                       # Number of indirect predictor lookups.
system.cpu.branchPred.indirectMisses              180                       # Number of indirect misses.
system.cpu.branchPred.lookups                  115061                       # Number of BP lookups
system.cpu.branchPred.usedRAS                    5805                       # Number of times the RAS was used to get a target.
system.cpu.branchPredindirectMispredicted           58                       # Number of mispredicted indirect branches.
system.cpu.cc_regfile_reads                    234444                       # number of cc regfile reads
system.cpu.cc_regfile_writes                   222372                       # number of cc regfile writes
system.cpu.commit.amos                              0                       # Number of atomic instructions committed
system.cpu.commit.branchMispredicts               552                       # The number of times a branch was mispredicted
system.cpu.commit.branches                     111003                       # Number of branches committed
system.cpu.commit.bw_lim_events                 31479                       # number cycles where commit BW limit reached
system.cpu.commit.commitNonSpecStalls             640                       # The number of times commit has been forced to stall to communicate backwards
system.cpu.commit.commitSquashedInsts           11384                       # The number of squashed insts skipped by commit
system.cpu.commit.committedInsts               500326                       # Number of instructions committed
system.cpu.commit.committedOps                 567838                       # Number of ops (including micro ops) committed
system.cpu.commit.committed_per_cycle::samples       466981                       # Number of insts commited each cycle
system.cpu.commit.committed_per_cycle::mean     1.215977                       # Number of insts commited each cycle
system.cpu.commit.committed_per_cycle::stdev     2.307776                       # Number of insts commited each cycle
system.cpu.commit.committed_per_cycle::underflows            0      0.00%      0.00% # Number of insts commited each cycle
system.cpu.commit.committed_per_cycle::0       305089     65.33%     65.33% # Number of insts commited each cycle
system.cpu.commit.committed_per_cycle::1        55971     11.99%     77.32% # Number of insts commited each cycle
system.cpu.commit.committed_per_cycle::2        29253      6.26%     83.58% # Number of insts commited each cycle
system.cpu.commit.committed_per_cycle::3        15292      3.27%     86.86% # Number of insts commited each cycle
system.cpu.commit.committed_per_cycle::4        12782      2.74%     89.59% # Number of insts commited each cycle
system.cpu.commit.committed_per_cycle::5         3880      0.83%     90.42% # Number of insts commited each cycle
system.cpu.commit.committed_per_cycle::6         7520      1.61%     92.04% # Number of insts commited each cycle
system.cpu.commit.committed_per_cycle::7         5715      1.22%     93.26% # Number of insts commited each cycle
system.cpu.commit.committed_per_cycle::8        31479      6.74%    100.00% # Number of insts commited each cycle
system.cpu.commit.committed_per_cycle::overflows            0      0.00%    100.00% # Number of insts commited each cycle
system.cpu.commit.committed_per_cycle::min_value            0                       # Number of insts commited each cycle
system.cpu.commit.committed_per_cycle::max_value            8                       # Number of insts commited each cycle
system.cpu.commit.committed_per_cycle::total       466981                       # Number of insts commited each cycle
system.cpu.commit.fp_insts                          0                       # Number of committed floating point instructions.
system.cpu.commit.function_calls                 5524                       # Number of function calls committed.
system.cpu.commit.int_insts                    493938                       # Number of committed integer instructions.
system.cpu.commit.loads                         85388                       # Number of loads committed
system.cpu.commit.membars                         626                       # Number of memory barriers committed
system.cpu.commit.op_class_0::No_OpClass          413      0.07%      0.07% # Class of committed instruction
system.cpu.commit.op_class_0::IntAlu           385176     67.83%     67.90% # Class of committed instruction
system.cpu.commit.op_class_0::IntMult            2986      0.53%     68.43% # Class of committed instruction
system.cpu.commit.op_class_0::IntDiv                3      0.00%     68.43% # Class of committed instruction
system.cpu.commit.op_class_0::FloatAdd              0      0.00%     68.43% # Class of committed instruction
system.cpu.commit.op_class_0::FloatCmp              0      0.00%     68.43% # Class of committed instruction
system.cpu.commit.op_class_0::FloatCvt              0      0.00%     68.43% # Class of committed instruction
system.cpu.commit.op_class_0::FloatMult             0      0.00%     68.43% # Class of committed instruction
system.cpu.commit.op_class_0::FloatMultAcc            0      0.00%     68.43% # Class of committed instruction
system.cpu.commit.op_class_0::FloatDiv              0      0.00%     68.43% # Class of committed instruction
system.cpu.commit.op_class_0::FloatMisc             0      0.00%     68.43% # Class of committed instruction
system.cpu.commit.op_class_0::FloatSqrt             0      0.00%     68.43% # Class of committed instruction
system.cpu.commit.op_class_0::SimdAdd             947      0.17%     68.60% # Class of committed instruction
system.cpu.commit.op_class_0::SimdAddAcc            0      0.00%     68.60% # Class of committed instruction
system.cpu.commit.op_class_0::SimdAlu             945      0.17%     68.76% # Class of committed instruction
system.cpu.commit.op_class_0::SimdCmp             834      0.15%     68.91% # Class of committed instruction
system.cpu.commit.op_class_0::SimdCvt               0      0.00%     68.91% # Class of committed instruction
system.cpu.commit.op_class_0::SimdMisc           1130      0.20%     69.11% # Class of committed instruction
system.cpu.commit.op_class_0::SimdMult              0      0.00%     69.11% # Class of committed instruction
system.cpu.commit.op_class_0::SimdMultAcc            0      0.00%     69.11% # Class of committed instruction
system.cpu.commit.op_class_0::SimdShift             0      0.00%     69.11% # Class of committed instruction
system.cpu.commit.op_class_0::SimdShiftAcc            0      0.00%     69.11% # Class of committed instruction
system.cpu.commit.op_class_0::SimdDiv               0      0.00%     69.11% # Class of committed instruction
system.cpu.commit.op_class_0::SimdSqrt              0      0.00%     69.11% # Class of committed instruction
system.cpu.commit.op_class_0::SimdFloatAdd            0      0.00%     69.11% # Class of committed instruction
system.cpu.commit.op_class_0::SimdFloatAlu            0      0.00%     69.11% # Class of committed instruction
system.cpu.commit.op_class_0::SimdFloatCmp            0      0.00%     69.11% # Class of committed instruction
system.cpu.commit.op_class_0::SimdFloatCvt            0      0.00%     69.11% # Class of committed instruction
system.cpu.commit.op_class_0::SimdFloatDiv            0      0.00%     69.11% # Class of committed instruction
system.cpu.commit.op_class_0::SimdFloatMisc            0      0.00%     69.11% # Class of committed instruction
system.cpu.commit.op_class_0::SimdFloatMult            0      0.00%     69.11% # Class of committed instruction
system.cpu.commit.op_class_0::SimdFloatMultAcc            0      0.00%     69.11% # Class of committed instruction
system.cpu.commit.op_class_0::SimdFloatSqrt            0      0.00%     69.11% # Class of committed instruction
system.cpu.commit.op_class_0::SimdReduceAdd            0      0.00%     69.11% # Class of committed instruction
system.cpu.commit.op_class_0::SimdReduceAlu            0      0.00%     69.11% # Class of committed instruction
system.cpu.commit.op_class_0::SimdReduceCmp            0      0.00%     69.11% # Class of committed instruction
system.cpu.commit.op_class_0::SimdFloatReduceAdd            0      0.00%     69.11% # Class of committed instruction
system.cpu.commit.op_class_0::SimdFloatReduceCmp            0      0.00%     69.11% # Class of committed instruction
system.cpu.commit.op_class_0::SimdAes               0      0.00%     69.11% # Class of committed instruction
system.cpu.commit.op_class_0::SimdAesMix            0      0.00%     69.11% # Class of committed instruction
system.cpu.commit.op_class_0::SimdSha1Hash            0      0.00%     69.11% # Class of committed instruction
system.cpu.commit.op_class_0::SimdSha1Hash2            0      0.00%     69.11% # Class of committed instruction
system.cpu.commit.op_class_0::SimdSha256Hash            0      0.00%     69.11% # Class of committed instruction
system.cpu.commit.op_class_0::SimdSha256Hash2            0      0.00%     69.11% # Class of committed instruction
system.cpu.commit.op_class_0::SimdShaSigma2            0      0.00%     69.11% # Class of committed instruction
system.cpu.commit.op_class_0::SimdShaSigma3            0      0.00%     69.11% # Class of committed instruction
system.cpu.commit.op_class_0::SimdPredAlu            0      0.00%     69.11% # Class of committed instruction
system.cpu.commit.op_class_0::MemRead           85388     15.04%     84.15% # Class of committed instruction
system.cpu.commit.op_class_0::MemWrite          90016     15.85%    100.00% # Class of committed instruction
system.cpu.commit.op_class_0::FloatMemRead            0      0.00%    100.00% # Class of committed instruction
system.cpu.commit.op_class_0::FloatMemWrite            0      0.00%    100.00% # Class of committed instruction
system.cpu.commit.op_class_0::IprAccess             0      0.00%    100.00% # Class of committed instruction
system.cpu.commit.op_class_0::InstPrefetch            0      0.00%    100.00% # Class of committed instruction
system.cpu.commit.op_class_0::total            567838                       # Class of committed instruction
system.cpu.commit.refs                         175404                       # Number of memory references committed
system.cpu.commit.swp_count                         0                       # Number of s/w prefetches committed
system.cpu.commit.vec_insts                      9935                       # Number of committed Vector instructions.
system.cpu.committedInsts                      500007                       # Number of Instructions Simulated
system.cpu.committedOps                        567519                       # Number of Ops (including micro ops) Simulated
system.cpu.cpi                               1.058717                       # CPI: Cycles Per Instruction
system.cpu.cpi_total                         1.058717                       # CPI: Total CPI of All Threads
system.cpu.decode.BlockedCycles                186071                       # Number of cycles decode is blocked
system.cpu.decode.BranchMispred                   251                       # Number of times decode detected a branch misprediction
system.cpu.decode.BranchResolved                46160                       # Number of times decode resolved a branch
system.cpu.decode.DecodedInsts                 583273                       # Number of instructions handled by decode
system.cpu.decode.IdleCycles                   172523                       # Number of cycles decode is idle
system.cpu.decode.RunCycles                    104672                       # Number of cycles decode is running
system.cpu.decode.SquashCycles                    632                       # Number of cycles decode is squashing
system.cpu.decode.SquashedInsts                   942                       # Number of squashed instructions handled by decode
system.cpu.decode.UnblockCycles                  4876                       # Number of cycles decode is unblocking
system.cpu.dtb.accesses                             0                       # DTB accesses
system.cpu.dtb.align_faults                         0                       # Number of TLB faults due to alignment restrictions
system.cpu.dtb.domain_faults                        0                       # Number of TLB faults due to domain restrictions
system.cpu.dtb.flush_entries                        0                       # Number of entries that have been flushed from TLB
system.cpu.dtb.flush_tlb                            0                       # Number of times complete TLB was flushed
system.cpu.dtb.flush_tlb_asid                       0                       # Number of times TLB was flushed by ASID
system.cpu.dtb.flush_tlb_mva                        0                       # Number of times TLB was flushed by MVA
system.cpu.dtb.flush_tlb_mva_asid                   0                       # Number of times TLB was flushed by MVA & ASID
system.cpu.dtb.hits                                 0                       # DTB hits
system.cpu.dtb.inst_accesses                        0                       # ITB inst accesses
system.cpu.dtb.inst_hits                            0                       # ITB inst hits
system.cpu.dtb.inst_misses                          0                       # ITB inst misses
system.cpu.dtb.misses                               0                       # DTB misses
system.cpu.dtb.perms_faults                         0                       # Number of TLB faults due to permissions restrictions
system.cpu.dtb.prefetch_faults                      0                       # Number of TLB faults due to prefetch
system.cpu.dtb.read_accesses                        0                       # DTB read accesses
system.cpu.dtb.read_hits                            0                       # DTB read hits
system.cpu.dtb.read_misses                          0                       # DTB read misses
system.cpu.dtb.stage2_mmu.stage2_tlb.accesses            0                       # DTB accesses
system.cpu.dtb.stage2_mmu.stage2_tlb.align_faults            0                       # Number of TLB faults due to alignment restrictions
system.cpu.dtb.stage2_mmu.stage2_tlb.domain_faults            0                       # Number of TLB faults due to domain restrictions
system.cpu.dtb.stage2_mmu.stage2_tlb.flush_entries            0                       # Number of entries that have been flushed from TLB
system.cpu.dtb.stage2_mmu.stage2_tlb.flush_tlb            0                       # Number of times complete TLB was flushed
system.cpu.dtb.stage2_mmu.stage2_tlb.flush_tlb_asid            0                       # Number of times TLB was flushed by ASID
system.cpu.dtb.stage2_mmu.stage2_tlb.flush_tlb_mva            0                       # Number of times TLB was flushed by MVA
system.cpu.dtb.stage2_mmu.stage2_tlb.flush_tlb_mva_asid            0                       # Number of times TLB was flushed by MVA & ASID
system.cpu.dtb.stage2_mmu.stage2_tlb.hits            0                       # DTB hits
system.cpu.dtb.stage2_mmu.stage2_tlb.inst_accesses            0                       # ITB inst accesses
system.cpu.dtb.stage2_mmu.stage2_tlb.inst_hits            0                       # ITB inst hits
system.cpu.dtb.stage2_mmu.stage2_tlb.inst_misses            0                       # ITB inst misses
system.cpu.dtb.stage2_mmu.stage2_tlb.misses            0                       # DTB misses
system.cpu.dtb.stage2_mmu.stage2_tlb.perms_faults            0                       # Number of TLB faults due to permissions restrictions
system.cpu.dtb.stage2_mmu.stage2_tlb.prefetch_faults            0                       # Number of TLB faults due to prefetch
system.cpu.dtb.stage2_mmu.stage2_tlb.read_accesses            0                       # DTB read accesses
system.cpu.dtb.stage2_mmu.stage2_tlb.read_hits            0                       # DTB read hits
system.cpu.dtb.stage2_mmu.stage2_tlb.read_misses            0                       # DTB read misses
system.cpu.dtb.stage2_mmu.stage2_tlb.walker.walkRequestOrigin_Requested::Data            0                       # Table walker requests started/completed, data/inst
system.cpu.dtb.stage2_mmu.stage2_tlb.walker.walkRequestOrigin_Requested::Inst            0                       # Table walker requests started/completed, data/inst
system.cpu.dtb.stage2_mmu.stage2_tlb.walker.walkRequestOrigin_Requested::total            0                       # Table walker requests started/completed, data/inst
system.cpu.dtb.stage2_mmu.stage2_tlb.walker.walkRequestOrigin_Completed::Data            0                       # Table walker requests started/completed, data/inst
system.cpu.dtb.stage2_mmu.stage2_tlb.walker.walkRequestOrigin_Completed::Inst            0                       # Table walker requests started/completed, data/inst
system.cpu.dtb.stage2_mmu.stage2_tlb.walker.walkRequestOrigin_Completed::total            0                       # Table walker requests started/completed, data/inst
system.cpu.dtb.stage2_mmu.stage2_tlb.walker.walkRequestOrigin::total            0                       # Table walker requests started/completed, data/inst
system.cpu.dtb.stage2_mmu.stage2_tlb.walker.walks            0                       # Table walker walks requested
system.cpu.dtb.stage2_mmu.stage2_tlb.write_accesses            0                       # DTB write accesses
system.cpu.dtb.stage2_mmu.stage2_tlb.write_hits            0                       # DTB write hits
system.cpu.dtb.stage2_mmu.stage2_tlb.write_misses            0                       # DTB write misses
system.cpu.dtb.walker.walkRequestOrigin_Requested::Data            0                       # Table walker requests started/completed, data/inst
system.cpu.dtb.walker.walkRequestOrigin_Requested::Inst            0                       # Table walker requests started/completed, data/inst
system.cpu.dtb.walker.walkRequestOrigin_Requested::total            0                       # Table walker requests started/completed, data/inst
system.cpu.dtb.walker.walkRequestOrigin_Completed::Data            0                       # Table walker requests started/completed, data/inst
system.cpu.dtb.walker.walkRequestOrigin_Completed::Inst            0                       # Table walker requests started/completed, data/inst
system.cpu.dtb.walker.walkRequestOrigin_Completed::total            0                       # Table walker requests started/completed, data/inst
system.cpu.dtb.walker.walkRequestOrigin::total            0                       # Table walker requests started/completed, data/inst
system.cpu.dtb.walker.walks                         0                       # Table walker walks requested
system.cpu.dtb.write_accesses                       0                       # DTB write accesses
system.cpu.dtb.write_hits                           0                       # DTB write hits
system.cpu.dtb.write_misses                         0                       # DTB write misses
system.cpu.fetch.Branches                      115061                       # Number of branches that fetch encountered
system.cpu.fetch.CacheLines                     76317                       # Number of cache lines fetched
system.cpu.fetch.Cycles                        259236                       # Number of cycles fetch has run and was not squashing or blocked
system.cpu.fetch.IcacheSquashes                   516                       # Number of outstanding Icache misses that were squashed
system.cpu.fetch.IcacheWaitRetryStallCycles           29                       # Number of stall cycles due to full MSHR
system.cpu.fetch.Insts                         519603                       # Number of instructions fetch has processed
system.cpu.fetch.MiscStallCycles                    2                       # Number of cycles fetch has spent waiting on interrupts, or bad addresses, or out of MSHRs
system.cpu.fetch.SquashCycles                    1760                       # Number of cycles fetch has spent squashing
system.cpu.fetch.branchRate                  0.217356                       # Number of branch fetches per cycle
system.cpu.fetch.icacheStallCycles             208627                       # Number of cycles fetch is stalled on an Icache miss
system.cpu.fetch.predictedBranches              53393                       # Number of branches that fetch has predicted taken
system.cpu.fetch.rate                        0.981557                       # Number of inst fetches per cycle
system.cpu.fetch.rateDist::samples             468774                       # Number of instructions fetched each cycle (Total)
system.cpu.fetch.rateDist::mean              1.257796                       # Number of instructions fetched each cycle (Total)
system.cpu.fetch.rateDist::stdev             2.534476                       # Number of instructions fetched each cycle (Total)
system.cpu.fetch.rateDist::underflows               0      0.00%      0.00% # Number of instructions fetched each cycle (Total)
system.cpu.fetch.rateDist::0                   352583     75.21%     75.21% # Number of instructions fetched each cycle (Total)
system.cpu.fetch.rateDist::1                    12013      2.56%     77.78% # Number of instructions fetched each cycle (Total)
system.cpu.fetch.rateDist::2                    10799      2.30%     80.08% # Number of instructions fetched each cycle (Total)
system.cpu.fetch.rateDist::3                    14626      3.12%     83.20% # Number of instructions fetched each cycle (Total)
system.cpu.fetch.rateDist::4                    18838      4.02%     87.22% # Number of instructions fetched each cycle (Total)
system.cpu.fetch.rateDist::5                    10219      2.18%     89.40% # Number of instructions fetched each cycle (Total)
system.cpu.fetch.rateDist::6                     3390      0.72%     90.12% # Number of instructions fetched each cycle (Total)
system.cpu.fetch.rateDist::7                     5102      1.09%     91.21% # Number of instructions fetched each cycle (Total)
system.cpu.fetch.rateDist::8                    41204      8.79%    100.00% # Number of instructions fetched each cycle (Total)
system.cpu.fetch.rateDist::overflows                0      0.00%    100.00% # Number of instructions fetched each cycle (Total)
system.cpu.fetch.rateDist::min_value                0                       # Number of instructions fetched each cycle (Total)
system.cpu.fetch.rateDist::max_value                8                       # Number of instructions fetched each cycle (Total)
system.cpu.fetch.rateDist::total               468774                       # Number of instructions fetched each cycle (Total)
system.cpu.idleCycles                           60592                       # Total number of cycles that the CPU has spent unscheduled due to idling
system.cpu.iew.branchMispredicts                  641                       # Number of branch mispredicts detected at execute
system.cpu.iew.exec_branches                   112109                       # Number of branches executed
system.cpu.iew.exec_nop                           350                       # number of nop insts executed
system.cpu.iew.exec_rate                     1.107621                       # Inst execution rate
system.cpu.iew.exec_refs                       188906                       # number of memory reference insts executed
system.cpu.iew.exec_stores                      91258                       # Number of stores executed
system.cpu.iew.exec_swp                             0                       # number of swp insts executed
system.cpu.iew.iewBlockCycles                    1621                       # Number of cycles IEW is blocking
system.cpu.iew.iewDispLoadInsts                 87191                       # Number of dispatched load instructions
system.cpu.iew.iewDispNonSpecInsts                661                       # Number of dispatched non-speculative instructions
system.cpu.iew.iewDispSquashedInsts               219                       # Number of squashed instructions skipped by dispatch
system.cpu.iew.iewDispStoreInsts                92005                       # Number of dispatched store instructions
system.cpu.iew.iewDispatchedInsts              579512                       # Number of instructions dispatched to IQ
system.cpu.iew.iewExecLoadInsts                 97648                       # Number of load instructions executed
system.cpu.iew.iewExecSquashedInsts               777                       # Number of squashed instructions skipped in execute
system.cpu.iew.iewExecutedInsts                586337                       # Number of executed instructions
system.cpu.iew.iewIQFullEvents                     23                       # Number of times the IQ has become full, causing a stall
system.cpu.iew.iewIdleCycles                        0                       # Number of cycles IEW is idle
system.cpu.iew.iewLSQFullEvents                  5620                       # Number of times the LSQ has become full, causing a stall
system.cpu.iew.iewSquashCycles                    632                       # Number of cycles IEW is squashing
system.cpu.iew.iewUnblockCycles                  5636                       # Number of cycles IEW is unblocking
system.cpu.iew.lsq.thread0.blockedLoads             0                       # Number of blocked loads due to partial load-store forwarding
system.cpu.iew.lsq.thread0.cacheBlocked           707                       # Number of times an access to memory failed due to the cache being blocked
system.cpu.iew.lsq.thread0.forwLoads             5358                       # Number of loads that had data forwarded from stores
system.cpu.iew.lsq.thread0.ignoredResponses            1                       # Number of memory responses ignored because the instruction is squashed
system.cpu.iew.lsq.thread0.invAddrLoads             0                       # Number of loads ignored due to an invalid address
system.cpu.iew.lsq.thread0.invAddrSwpfs             0                       # Number of software prefetches ignored due to an invalid address
system.cpu.iew.lsq.thread0.memOrderViolation           35                       # Number of memory ordering violations
system.cpu.iew.lsq.thread0.rescheduledLoads         8316                       # Number of loads that were rescheduled
system.cpu.iew.lsq.thread0.squashedLoads         1799                       # Number of loads squashed
system.cpu.iew.lsq.thread0.squashedStores         1985                       # Number of stores squashed
system.cpu.iew.memOrderViolationEvents             35                       # Number of memory order violations
system.cpu.iew.predictedNotTakenIncorrect          570                       # Number of branches that were predicted not taken incorrectly
system.cpu.iew.predictedTakenIncorrect             71                       # Number of branches that were predicted taken incorrectly
system.cpu.iew.wb_consumers                    551333                       # num instructions consuming a value
system.cpu.iew.wb_count                        574419                       # cumulative count of insts written-back
system.cpu.iew.wb_fanout                     0.512924                       # average fanout of values written-back
system.cpu.iew.wb_producers                    282792                       # num instructions producing a value
system.cpu.iew.wb_rate                       1.085107                       # insts written-back per cycle
system.cpu.iew.wb_sent                         574990                       # cumulative count of insts sent to commit
system.cpu.int_regfile_reads                   665719                       # number of integer regfile reads
system.cpu.int_regfile_writes                  383565                       # number of integer regfile writes
system.cpu.ipc                               0.944539                       # IPC: Instructions Per Cycle
system.cpu.ipc_total                         0.944539                       # IPC: Total IPC of All Threads
system.cpu.iq.FU_type_0::No_OpClass               418      0.07%      0.07% # Type of FU issued
system.cpu.iq.FU_type_0::IntAlu                390497     66.51%     66.58% # Type of FU issued
system.cpu.iq.FU_type_0::IntMult                 2991      0.51%     67.09% # Type of FU issued
system.cpu.iq.FU_type_0::IntDiv                     3      0.00%     67.09% # Type of FU issued
system.cpu.iq.FU_type_0::FloatAdd                   0      0.00%     67.09% # Type of FU issued
system.cpu.iq.FU_type_0::FloatCmp                   0      0.00%     67.09% # Type of FU issued
system.cpu.iq.FU_type_0::FloatCvt                   0      0.00%     67.09% # Type of FU issued
system.cpu.iq.FU_type_0::FloatMult                  0      0.00%     67.09% # Type of FU issued
system.cpu.iq.FU_type_0::FloatMultAcc               0      0.00%     67.09% # Type of FU issued
system.cpu.iq.FU_type_0::FloatDiv                   0      0.00%     67.09% # Type of FU issued
system.cpu.iq.FU_type_0::FloatMisc                  0      0.00%     67.09% # Type of FU issued
system.cpu.iq.FU_type_0::FloatSqrt                  0      0.00%     67.09% # Type of FU issued
system.cpu.iq.FU_type_0::SimdAdd                  964      0.16%     67.26% # Type of FU issued
system.cpu.iq.FU_type_0::SimdAddAcc                 0      0.00%     67.26% # Type of FU issued
system.cpu.iq.FU_type_0::SimdAlu                  961      0.16%     67.42% # Type of FU issued
system.cpu.iq.FU_type_0::SimdCmp                  846      0.14%     67.56% # Type of FU issued
system.cpu.iq.FU_type_0::SimdCvt                    0      0.00%     67.56% # Type of FU issued
system.cpu.iq.FU_type_0::SimdMisc                1140      0.19%     67.76% # Type of FU issued
system.cpu.iq.FU_type_0::SimdMult                   0      0.00%     67.76% # Type of FU issued
system.cpu.iq.FU_type_0::SimdMultAcc                0      0.00%     67.76% # Type of FU issued
system.cpu.iq.FU_type_0::SimdShift                  0      0.00%     67.76% # Type of FU issued
system.cpu.iq.FU_type_0::SimdShiftAcc               0      0.00%     67.76% # Type of FU issued
system.cpu.iq.FU_type_0::SimdDiv                    0      0.00%     67.76% # Type of FU issued
system.cpu.iq.FU_type_0::SimdSqrt                   0      0.00%     67.76% # Type of FU issued
system.cpu.iq.FU_type_0::SimdFloatAdd               0      0.00%     67.76% # Type of FU issued
system.cpu.iq.FU_type_0::SimdFloatAlu               0      0.00%     67.76% # Type of FU issued
system.cpu.iq.FU_type_0::SimdFloatCmp               0      0.00%     67.76% # Type of FU issued
system.cpu.iq.FU_type_0::SimdFloatCvt               0      0.00%     67.76% # Type of FU issued
system.cpu.iq.FU_type_0::SimdFloatDiv               0      0.00%     67.76% # Type of FU issued
system.cpu.iq.FU_type_0::SimdFloatMisc              0      0.00%     67.76% # Type of FU issued
system.cpu.iq.FU_type_0::SimdFloatMult              0      0.00%     67.76% # Type of FU issued
system.cpu.iq.FU_type_0::SimdFloatMultAcc            0      0.00%     67.76% # Type of FU issued
system.cpu.iq.FU_type_0::SimdFloatSqrt              0      0.00%     67.76% # Type of FU issued
system.cpu.iq.FU_type_0::SimdReduceAdd              0      0.00%     67.76% # Type of FU issued
system.cpu.iq.FU_type_0::SimdReduceAlu              0      0.00%     67.76% # Type of FU issued
system.cpu.iq.FU_type_0::SimdReduceCmp              0      0.00%     67.76% # Type of FU issued
system.cpu.iq.FU_type_0::SimdFloatReduceAdd            0      0.00%     67.76% # Type of FU issued
system.cpu.iq.FU_type_0::SimdFloatReduceCmp            0      0.00%     67.76% # Type of FU issued
system.cpu.iq.FU_type_0::SimdAes                    0      0.00%     67.76% # Type of FU issued
system.cpu.iq.FU_type_0::SimdAesMix                 0      0.00%     67.76% # Type of FU issued
system.cpu.iq.FU_type_0::SimdSha1Hash               0      0.00%     67.76% # Type of FU issued
system.cpu.iq.FU_type_0::SimdSha1Hash2              0      0.00%     67.76% # Type of FU issued
system.cpu.iq.FU_type_0::SimdSha256Hash             0      0.00%     67.76% # Type of FU issued
system.cpu.iq.FU_type_0::SimdSha256Hash2            0      0.00%     67.76% # Type of FU issued
system.cpu.iq.FU_type_0::SimdShaSigma2              0      0.00%     67.76% # Type of FU issued
system.cpu.iq.FU_type_0::SimdShaSigma3              0      0.00%     67.76% # Type of FU issued
system.cpu.iq.FU_type_0::SimdPredAlu                0      0.00%     67.76% # Type of FU issued
system.cpu.iq.FU_type_0::MemRead                97845     16.67%     84.42% # Type of FU issued
system.cpu.iq.FU_type_0::MemWrite               91452     15.58%    100.00% # Type of FU issued
system.cpu.iq.FU_type_0::FloatMemRead               0      0.00%    100.00% # Type of FU issued
system.cpu.iq.FU_type_0::FloatMemWrite              0      0.00%    100.00% # Type of FU issued
system.cpu.iq.FU_type_0::IprAccess                  0      0.00%    100.00% # Type of FU issued
system.cpu.iq.FU_type_0::InstPrefetch               0      0.00%    100.00% # Type of FU issued
system.cpu.iq.FU_type_0::total                 587117                       # Type of FU issued
system.cpu.iq.fp_alu_accesses                       0                       # Number of floating point alu accesses
system.cpu.iq.fp_inst_queue_reads                   0                       # Number of floating instruction queue reads
system.cpu.iq.fp_inst_queue_wakeup_accesses            0                       # Number of floating instruction queue wakeup accesses
system.cpu.iq.fp_inst_queue_writes                  0                       # Number of floating instruction queue writes
system.cpu.iq.fu_busy_cnt                       14363                       # FU busy when requested
system.cpu.iq.fu_busy_rate                   0.024464                       # FU busy rate (busy events/executed inst)
system.cpu.iq.fu_full::No_OpClass                   0      0.00%      0.00% # attempts to use FU when none available
system.cpu.iq.fu_full::IntAlu                    3103     21.60%     21.60% # attempts to use FU when none available
system.cpu.iq.fu_full::IntMult                      0      0.00%     21.60% # attempts to use FU when none available
system.cpu.iq.fu_full::IntDiv                       0      0.00%     21.60% # attempts to use FU when none available
system.cpu.iq.fu_full::FloatAdd                     0      0.00%     21.60% # attempts to use FU when none available
system.cpu.iq.fu_full::FloatCmp                     0      0.00%     21.60% # attempts to use FU when none available
system.cpu.iq.fu_full::FloatCvt                     0      0.00%     21.60% # attempts to use FU when none available
system.cpu.iq.fu_full::FloatMult                    0      0.00%     21.60% # attempts to use FU when none available
system.cpu.iq.fu_full::FloatMultAcc                 0      0.00%     21.60% # attempts to use FU when none available
system.cpu.iq.fu_full::FloatDiv                     0      0.00%     21.60% # attempts to use FU when none available
system.cpu.iq.fu_full::FloatMisc                    0      0.00%     21.60% # attempts to use FU when none available
system.cpu.iq.fu_full::FloatSqrt                    0      0.00%     21.60% # attempts to use FU when none available
system.cpu.iq.fu_full::SimdAdd                      0      0.00%     21.60% # attempts to use FU when none available
system.cpu.iq.fu_full::SimdAddAcc                   0      0.00%     21.60% # attempts to use FU when none available
system.cpu.iq.fu_full::SimdAlu                      2      0.01%     21.62% # attempts to use FU when none available
system.cpu.iq.fu_full::SimdCmp                      2      0.01%     21.63% # attempts to use FU when none available
system.cpu.iq.fu_full::SimdCvt                      0      0.00%     21.63% # attempts to use FU when none available
system.cpu.iq.fu_full::SimdMisc                     0      0.00%     21.63% # attempts to use FU when none available
system.cpu.iq.fu_full::SimdMult                     0      0.00%     21.63% # attempts to use FU when none available
system.cpu.iq.fu_full::SimdMultAcc                  0      0.00%     21.63% # attempts to use FU when none available
system.cpu.iq.fu_full::SimdShift                    0      0.00%     21.63% # attempts to use FU when none available
system.cpu.iq.fu_full::SimdShiftAcc                 0      0.00%     21.63% # attempts to use FU when none available
system.cpu.iq.fu_full::SimdDiv                      0      0.00%     21.63% # attempts to use FU when none available
system.cpu.iq.fu_full::SimdSqrt                     0      0.00%     21.63% # attempts to use FU when none available
system.cpu.iq.fu_full::SimdFloatAdd                 0      0.00%     21.63% # attempts to use FU when none available
system.cpu.iq.fu_full::SimdFloatAlu                 0      0.00%     21.63% # attempts to use FU when none available
system.cpu.iq.fu_full::SimdFloatCmp                 0      0.00%     21.63% # attempts to use FU when none available
system.cpu.iq.fu_full::SimdFloatCvt                 0      0.00%     21.63% # attempts to use FU when none available
system.cpu.iq.fu_full::SimdFloatDiv                 0      0.00%     21.63% # attempts to use FU when none available
system.cpu.iq.fu_full::SimdFloatMisc                0      0.00%     21.63% # attempts to use FU when none available
system.cpu.iq.fu_full::SimdFloatMult                0      0.00%     21.63% # attempts to use FU when none available
system.cpu.iq.fu_full::SimdFloatMultAcc             0      0.00%     21.63% # attempts to use FU when none available
system.cpu.iq.fu_full::SimdFloatSqrt                0      0.00%     21.63% # attempts to use FU when none available
system.cpu.iq.fu_full::SimdReduceAdd                0      0.00%     21.63% # attempts to use FU when none available
system.cpu.iq.fu_full::SimdReduceAlu                0      0.00%     21.63% # attempts to use FU when none available
system.cpu.iq.fu_full::SimdReduceCmp                0      0.00%     21.63% # attempts to use FU when none available
system.cpu.iq.fu_full::SimdFloatReduceAdd            0      0.00%     21.63% # attempts to use FU when none available
system.cpu.iq.fu_full::SimdFloatReduceCmp            0      0.00%     21.63% # attempts to use FU when none available
system.cpu.iq.fu_full::SimdAes                      0      0.00%     21.63% # attempts to use FU when none available
system.cpu.iq.fu_full::SimdAesMix                   0      0.00%     21.63% # attempts to use FU when none available
system.cpu.iq.fu_full::SimdSha1Hash                 0      0.00%     21.63% # attempts to use FU when none available
system.cpu.iq.fu_full::SimdSha1Hash2                0      0.00%     21.63% # attempts to use FU when none available
system.cpu.iq.fu_full::SimdSha256Hash               0      0.00%     21.63% # attempts to use FU when none available
system.cpu.iq.fu_full::SimdSha256Hash2              0      0.00%     21.63% # attempts to use FU when none available
system.cpu.iq.fu_full::SimdShaSigma2                0      0.00%     21.63% # attempts to use FU when none available
system.cpu.iq.fu_full::SimdShaSigma3                0      0.00%     21.63% # attempts to use FU when none available
system.cpu.iq.fu_full::SimdPredAlu                  0      0.00%     21.63% # attempts to use FU when none available
system.cpu.iq.fu_full::MemRead                   3979     27.70%     49.34% # attempts to use FU when none available
system.cpu.iq.fu_full::MemWrite                  7277     50.66%    100.00% # attempts to use FU when none available
system.cpu.iq.fu_full::FloatMemRead                 0      0.00%    100.00% # attempts to use FU when none available
system.cpu.iq.fu_full::FloatMemWrite                0      0.00%    100.00% # attempts to use FU when none available
system.cpu.iq.fu_full::IprAccess                    0      0.00%    100.00% # attempts to use FU when none available
system.cpu.iq.fu_full::InstPrefetch                 0      0.00%    100.00% # attempts to use FU when none available
system.cpu.iq.int_alu_accesses                 590189                       # Number of integer alu accesses
system.cpu.iq.int_inst_queue_reads            1636062                       # Number of integer instruction queue reads
system.cpu.iq.int_inst_queue_wakeup_accesses       564383                       # Number of integer instruction queue wakeup accesses
system.cpu.iq.int_inst_queue_writes            580371                       # Number of integer instruction queue writes
system.cpu.iq.iqInstsAdded                     578501                       # Number of instructions added to the IQ (excludes non-spec)
system.cpu.iq.iqInstsIssued                    587117                       # Number of instructions issued
system.cpu.iq.iqNonSpecInstsAdded                 661                       # Number of non-speculative instructions added to the IQ
system.cpu.iq.iqSquashedInstsExamined           11626                       # Number of squashed instructions iterated over during squash; mainly for profiling
system.cpu.iq.iqSquashedInstsIssued               104                       # Number of squashed instructions issued
system.cpu.iq.iqSquashedNonSpecRemoved             21                       # Number of squashed non-spec instructions that were removed
system.cpu.iq.iqSquashedOperandsExamined         7196                       # Number of squashed operands that are examined and possibly removed from graph
system.cpu.iq.issued_per_cycle::samples        468774                       # Number of insts issued each cycle
system.cpu.iq.issued_per_cycle::mean         1.252452                       # Number of insts issued each cycle
system.cpu.iq.issued_per_cycle::stdev        1.968903                       # Number of insts issued each cycle
system.cpu.iq.issued_per_cycle::underflows            0      0.00%      0.00% # Number of insts issued each cycle
system.cpu.iq.issued_per_cycle::0              284934     60.78%     60.78% # Number of insts issued each cycle
system.cpu.iq.issued_per_cycle::1               43961      9.38%     70.16% # Number of insts issued each cycle
system.cpu.iq.issued_per_cycle::2               36754      7.84%     78.00% # Number of insts issued each cycle
system.cpu.iq.issued_per_cycle::3               32332      6.90%     84.90% # Number of insts issued each cycle
system.cpu.iq.issued_per_cycle::4               24903      5.31%     90.21% # Number of insts issued each cycle
system.cpu.iq.issued_per_cycle::5               19828      4.23%     94.44% # Number of insts issued each cycle
system.cpu.iq.issued_per_cycle::6               13715      2.93%     97.37% # Number of insts issued each cycle
system.cpu.iq.issued_per_cycle::7                7166      1.53%     98.89% # Number of insts issued each cycle
system.cpu.iq.issued_per_cycle::8                5181      1.11%    100.00% # Number of insts issued each cycle
system.cpu.iq.issued_per_cycle::overflows            0      0.00%    100.00% # Number of insts issued each cycle
system.cpu.iq.issued_per_cycle::min_value            0                       # Number of insts issued each cycle
system.cpu.iq.issued_per_cycle::max_value            8                       # Number of insts issued each cycle
system.cpu.iq.issued_per_cycle::total          468774                       # Number of insts issued each cycle
system.cpu.iq.rate                           1.109095                       # Inst issue rate
system.cpu.iq.vec_alu_accesses                  10873                       # Number of vector alu accesses
system.cpu.iq.vec_inst_queue_reads              21410                       # Number of vector instruction queue reads
system.cpu.iq.vec_inst_queue_wakeup_accesses        10036                       # Number of vector instruction queue wakeup accesses
system.cpu.iq.vec_inst_queue_writes             10451                       # Number of vector instruction queue writes
system.cpu.itb.accesses                             0                       # DTB accesses
system.cpu.itb.align_faults                         0                       # Number of TLB faults due to alignment restrictions
system.cpu.itb.domain_faults                        0                       # Number of TLB faults due to domain restrictions
system.cpu.itb.flush_entries                        0                       # Number of entries that have been flushed from TLB
system.cpu.itb.flush_tlb                            0                       # Number of times complete TLB was flushed
system.cpu.itb.flush_tlb_asid                       0                       # Number of times TLB was flushed by ASID
system.cpu.itb.flush_tlb_mva                        0                       # Number of times TLB was flushed by MVA
system.cpu.itb.flush_tlb_mva_asid                   0                       # Number of times TLB was flushed by MVA & ASID
system.cpu.itb.hits                                 0                       # DTB hits
system.cpu.itb.inst_accesses                        0                       # ITB inst accesses
system.cpu.itb.inst_hits                            0                       # ITB inst hits
system.cpu.itb.inst_misses                          0                       # ITB inst misses
system.cpu.itb.misses                               0                       # DTB misses
system.cpu.itb.perms_faults                         0                       # Number of TLB faults due to permissions restrictions
system.cpu.itb.prefetch_faults                      0                       # Number of TLB faults due to prefetch
system.cpu.itb.read_accesses                        0                       # DTB read accesses
system.cpu.itb.read_hits                            0                       # DTB read hits
system.cpu.itb.read_misses                          0                       # DTB read misses
system.cpu.itb.stage2_mmu.stage2_tlb.accesses            0                       # DTB accesses
system.cpu.itb.stage2_mmu.stage2_tlb.align_faults            0                       # Number of TLB faults due to alignment restrictions
system.cpu.itb.stage2_mmu.stage2_tlb.domain_faults            0                       # Number of TLB faults due to domain restrictions
system.cpu.itb.stage2_mmu.stage2_tlb.flush_entries            0                       # Number of entries that have been flushed from TLB
system.cpu.itb.stage2_mmu.stage2_tlb.flush_tlb            0                       # Number of times complete TLB was flushed
system.cpu.itb.stage2_mmu.stage2_tlb.flush_tlb_asid            0                       # Number of times TLB was flushed by ASID
system.cpu.itb.stage2_mmu.stage2_tlb.flush_tlb_mva            0                       # Number of times TLB was flushed by MVA
system.cpu.itb.stage2_mmu.stage2_tlb.flush_tlb_mva_asid            0                       # Number of times TLB was flushed by MVA & ASID
system.cpu.itb.stage2_mmu.stage2_tlb.hits            0                       # DTB hits
system.cpu.itb.stage2_mmu.stage2_tlb.inst_accesses            0                       # ITB inst accesses
system.cpu.itb.stage2_mmu.stage2_tlb.inst_hits            0                       # ITB inst hits
system.cpu.itb.stage2_mmu.stage2_tlb.inst_misses            0                       # ITB inst misses
system.cpu.itb.stage2_mmu.stage2_tlb.misses            0                       # DTB misses
system.cpu.itb.stage2_mmu.stage2_tlb.perms_faults            0                       # Number of TLB faults due to permissions restrictions
system.cpu.itb.stage2_mmu.stage2_tlb.prefetch_faults            0                       # Number of TLB faults due to prefetch
system.cpu.itb.stage2_mmu.stage2_tlb.read_accesses            0                       # DTB read accesses
system.cpu.itb.stage2_mmu.stage2_tlb.read_hits            0                       # DTB read hits
system.cpu.itb.stage2_mmu.stage2_tlb.read_misses            0                       # DTB read misses
system.cpu.itb.stage2_mmu.stage2_tlb.walker.walkRequestOrigin_Requested::Data            0                       # Table walker requests started/completed, data/inst
system.cpu.itb.stage2_mmu.stage2_tlb.walker.walkRequestOrigin_Requested::Inst            0                       # Table walker requests started/completed, data/inst
system.cpu.itb.stage2_mmu.stage2_tlb.walker.walkRequestOrigin_Requested::total            0                       # Table walker requests started/completed, data/inst
system.cpu.itb.stage2_mmu.stage2_tlb.walker.walkRequestOrigin_Completed::Data            0                       # Table walker requests started/completed, data/inst
system.cpu.itb.stage2_mmu.stage2_tlb.walker.walkRequestOrigin_Completed::Inst            0                       # Table walker requests started/completed, data/inst
system.cpu.itb.stage2_mmu.stage2_tlb.walker.walkRequestOrigin_Completed::total            0                       # Table walker requests started/completed, data/inst
system.cpu.itb.stage2_mmu.stage2_tlb.walker.walkRequestOrigin::total            0                       # Table walker requests started/completed, data/inst
system.cpu.itb.stage2_mmu.stage2_tlb.walker.walks            0                       # Table walker walks requested
system.cpu.itb.stage2_mmu.stage2_tlb.write_accesses            0                       # DTB write accesses
system.cpu.itb.stage2_mmu.stage2_tlb.write_hits            0                       # DTB write hits
system.cpu.itb.stage2_mmu.stage2_tlb.write_misses            0                       # DTB write misses
system.cpu.itb.walker.walkRequestOrigin_Requested::Data            0                       # Table walker requests started/completed, data/inst
system.cpu.itb.walker.walkRequestOrigin_Requested::Inst            0                       # Table walker requests started/completed, data/inst
system.cpu.itb.walker.walkRequestOrigin_Requested::total            0                       # Table walker requests started/completed, data/inst
system.cpu.itb.walker.walkRequestOrigin_Completed::Data            0                       # Table walker requests started/completed, data/inst
system.cpu.itb.walker.walkRequestOrigin_Completed::Inst            0                       # Table walker requests started/completed, data/inst
system.cpu.itb.walker.walkRequestOrigin_Completed::total            0                       # Table walker requests started/completed, data/inst
system.cpu.itb.walker.walkRequestOrigin::total            0                       # Table walker requests started/completed, data/inst
system.cpu.itb.walker.walks                         0                       # Table walker walks requested
system.cpu.itb.write_accesses                       0                       # DTB write accesses
system.cpu.itb.write_hits                           0                       # DTB write hits
system.cpu.itb.write_misses                         0                       # DTB write misses
system.cpu.memDep0.conflictingLoads              8069                       # Number of conflicting loads.
system.cpu.memDep0.conflictingStores             3896                       # Number of conflicting stores.
system.cpu.memDep0.insertedLoads                87191                       # Number of loads inserted to the mem dependence unit.
system.cpu.memDep0.insertedStores               92005                       # Number of stores inserted to the mem dependence unit.
system.cpu.misc_regfile_reads                  399903                       # number of misc regfile reads
system.cpu.misc_regfile_writes                   2505                       # number of misc regfile writes
system.cpu.numCycles                           529366                       # number of cpu cycles simulated
system.cpu.numWorkItemsCompleted                    0                       # number of work items this cpu completed
system.cpu.numWorkItemsStarted                      0                       # number of work items this cpu started
system.cpu.rename.BlockCycles                    6087                       # Number of cycles rename is blocking
system.cpu.rename.CommittedMaps                605477                       # Number of HB maps that are committed
system.cpu.rename.IQFullEvents                   2997                       # Number of times rename has blocked due to IQ full
system.cpu.rename.IdleCycles                   174538                       # Number of cycles rename is idle
system.cpu.rename.ROBFullEvents                     5                       # Number of times rename has blocked due to ROB full
system.cpu.rename.RenameLookups                935000                       # Number of register rename lookups that rename has made
system.cpu.rename.RenamedInsts                 581458                       # Number of instructions processed by rename
system.cpu.rename.RenamedOperands              618370                       # Number of destination operands rename has renamed
system.cpu.rename.RunCycles                    107792                       # Number of cycles rename is running
system.cpu.rename.SQFullEvents                  48747                       # Number of times rename has blocked due to SQ full
system.cpu.rename.SquashCycles                    632                       # Number of cycles rename is squashing
system.cpu.rename.UnblockCycles                 53978                       # Number of cycles rename is unblocking
system.cpu.rename.UndoneMaps                    12862                       # Number of HB maps that are undone due to squashing
system.cpu.rename.int_rename_lookups           661275                       # Number of integer rename lookups
system.cpu.rename.serializeStallCycles         125747                       # count of cycles rename stalled for serializing inst
system.cpu.rename.serializingInsts               1967                       # count of serializing insts renamed
system.cpu.rename.skidInsts                     19622                       # count of insts added to the skid buffer
system.cpu.rename.tempSerializingInsts            661                       # count of temporary serializing insts renamed
system.cpu.rename.vec_rename_lookups            12398                       # Number of vector rename lookups
system.cpu.rob.rob_reads                      1014074                       # The number of ROB reads
system.cpu.rob.rob_writes                     1160259                       # The number of ROB writes
system.cpu.timesIdled                            3873                       # Number of times that the entire CPU went into an idle state and unscheduled itself
system.cpu.vec_regfile_reads                    12195                       # number of vector regfile reads
system.cpu.vec_regfile_writes                    5046                       # number of vector regfile writes
system.cpu.workload.numSyscalls                    13                       # Number of system calls
system.membus.snoop_filter.hit_multi_requests            0                       # Number of requests hitting in the snoop filter with multiple (>1) holders of the requested data.
system.membus.snoop_filter.hit_multi_snoops            0                       # Number of snoops hitting in the snoop filter with multiple (>1) holders of the requested data.
system.membus.snoop_filter.hit_single_requests            0                       # Number of requests hitting in the snoop filter with a single holder of the requested data.
system.membus.snoop_filter.hit_single_snoops            0                       # Number of snoops hitting in the snoop filter with a single holder of the requested data.
system.membus.snoop_filter.tot_requests          2659                       # Total number of requests made to the snoop filter.
system.membus.snoop_filter.tot_snoops               0                       # Total number of snoops made to the snoop filter.
system.tol2bus.snoop_filter.hit_multi_requests            1                       # Number of requests hitting in the snoop filter with multiple (>1) holders of the requested data.
system.tol2bus.snoop_filter.hit_multi_snoops            0                       # Number of snoops hitting in the snoop filter with multiple (>1) holders of the requested data.
system.tol2bus.snoop_filter.hit_single_requests         7793                       # Number of requests hitting in the snoop filter with a single holder of the requested data.
system.tol2bus.snoop_filter.hit_single_snoops            0                       # Number of snoops hitting in the snoop filter with a single holder of the requested data.
system.tol2bus.snoop_filter.tot_requests        16459                       # Total number of requests made to the snoop filter.
system.tol2bus.snoop_filter.tot_snoops              0                       # Total number of snoops made to the snoop filter.
system.membus.trans_dist::ReadResp                951                       # Transaction distribution
system.membus.trans_dist::ReadExReq              1693                       # Transaction distribution
system.membus.trans_dist::ReadExResp             1693                       # Transaction distribution
system.membus.trans_dist::ReadSharedReq           951                       # Transaction distribution
system.membus.trans_dist::InvalidateReq            15                       # Transaction distribution
system.membus.pkt_count_system.l2.mem_side::system.mem_ctrls.port         5303                       # Packet count per connected master and slave (bytes)
system.membus.pkt_count::total                   5303                       # Packet count per connected master and slave (bytes)
system.membus.pkt_size_system.l2.mem_side::system.mem_ctrls.port       169216                       # Cumulative packet size per connected master and slave (bytes)
system.membus.pkt_size::total                  169216                       # Cumulative packet size per connected master and slave (bytes)
system.membus.snoops                                0                       # Total snoops (count)
system.membus.snoopTraffic                          0                       # Total snoop traffic (bytes)
system.membus.snoop_fanout::samples              2659                       # Request fanout histogram
system.membus.snoop_fanout::mean                    0                       # Request fanout histogram
system.membus.snoop_fanout::stdev                   0                       # Request fanout histogram
system.membus.snoop_fanout::underflows              0      0.00%      0.00% # Request fanout histogram
system.membus.snoop_fanout::0                    2659    100.00%    100.00% # Request fanout histogram
system.membus.snoop_fanout::1                       0      0.00%    100.00% # Request fanout histogram
system.membus.snoop_fanout::overflows               0      0.00%    100.00% # Request fanout histogram
system.membus.snoop_fanout::min_value               0                       # Request fanout histogram
system.membus.snoop_fanout::max_value               0                       # Request fanout histogram
system.membus.snoop_fanout::total                2659                       # Request fanout histogram
system.membus.reqLayer0.occupancy             3140500                       # Layer occupancy (ticks)
system.membus.reqLayer0.utilization               1.2                       # Layer utilization (%)
system.membus.respLayer1.occupancy           13748250                       # Layer occupancy (ticks)
system.membus.respLayer1.utilization              5.2                       # Layer utilization (%)
system.membus.power_state.pwrStateResidencyTicks::UNDEFINED    264682500                       # Cumulative time (in ticks) in various power states
system.tol2bus.trans_dist::ReadResp              6943                       # Transaction distribution
system.tol2bus.trans_dist::WritebackDirty         1828                       # Transaction distribution
system.tol2bus.trans_dist::WritebackClean         5541                       # Transaction distribution
system.tol2bus.trans_dist::CleanEvict             424                       # Transaction distribution
system.tol2bus.trans_dist::ReadExReq             1708                       # Transaction distribution
system.tol2bus.trans_dist::ReadExResp            1708                       # Transaction distribution
system.tol2bus.trans_dist::ReadCleanReq          5902                       # Transaction distribution
system.tol2bus.trans_dist::ReadSharedReq         1041                       # Transaction distribution
system.tol2bus.trans_dist::InvalidateReq           15                       # Transaction distribution
system.tol2bus.trans_dist::InvalidateResp           15                       # Transaction distribution
system.tol2bus.pkt_count_system.cpu.icache.mem_side::system.l2.cpu_side        17345                       # Packet count per connected master and slave (bytes)
system.tol2bus.pkt_count_system.cpu.dcache.mem_side::system.l2.cpu_side         7780                       # Packet count per connected master and slave (bytes)
system.tol2bus.pkt_count::total                 25125                       # Packet count per connected master and slave (bytes)
system.tol2bus.pkt_size_system.cpu.icache.mem_side::system.l2.cpu_side       732352                       # Cumulative packet size per connected master and slave (bytes)
system.tol2bus.pkt_size_system.cpu.dcache.mem_side::system.l2.cpu_side       292928                       # Cumulative packet size per connected master and slave (bytes)
system.tol2bus.pkt_size::total                1025280                       # Cumulative packet size per connected master and slave (bytes)
system.tol2bus.snoops                               0                       # Total snoops (count)
system.tol2bus.snoopTraffic                         0                       # Total snoop traffic (bytes)
system.tol2bus.snoop_fanout::samples             8666                       # Request fanout histogram
system.tol2bus.snoop_fanout::mean            0.000115                       # Request fanout histogram
system.tol2bus.snoop_fanout::stdev           0.010742                       # Request fanout histogram
system.tol2bus.snoop_fanout::underflows             0      0.00%      0.00% # Request fanout histogram
system.tol2bus.snoop_fanout::0                   8665     99.99%     99.99% # Request fanout histogram
system.tol2bus.snoop_fanout::1                      1      0.01%    100.00% # Request fanout histogram
system.tol2bus.snoop_fanout::2                      0      0.00%    100.00% # Request fanout histogram
system.tol2bus.snoop_fanout::overflows              0      0.00%    100.00% # Request fanout histogram
system.tol2bus.snoop_fanout::min_value              0                       # Request fanout histogram
system.tol2bus.snoop_fanout::max_value              1                       # Request fanout histogram
system.tol2bus.snoop_fanout::total               8666                       # Request fanout histogram
system.tol2bus.reqLayer0.occupancy           15598500                       # Layer occupancy (ticks)
system.tol2bus.reqLayer0.utilization              5.9                       # Layer utilization (%)
system.tol2bus.respLayer1.occupancy           4131000                       # Layer occupancy (ticks)
system.tol2bus.respLayer1.utilization             1.6                       # Layer utilization (%)
system.tol2bus.respLayer0.occupancy           8853000                       # Layer occupancy (ticks)
system.tol2bus.respLayer0.utilization             3.3                       # Layer utilization (%)
system.tol2bus.power_state.pwrStateResidencyTicks::UNDEFINED    264682500                       # Cumulative time (in ticks) in various power states
system.voltage_domain.voltage                       1                       # Voltage in Volts
system.clk_domain.clock                          1000                       # Clock period in ticks
system.l2.demand_hits::.cpu.inst                 5380                       # number of demand (read+write) hits
system.l2.demand_hits::.cpu.data                  627                       # number of demand (read+write) hits
system.l2.demand_hits::total                     6007                       # number of demand (read+write) hits
system.l2.overall_hits::.cpu.inst                5380                       # number of overall hits
system.l2.overall_hits::.cpu.data                 627                       # number of overall hits
system.l2.overall_hits::total                    6007                       # number of overall hits
system.l2.demand_misses::.cpu.inst                522                       # number of demand (read+write) misses
system.l2.demand_misses::.cpu.data               2122                       # number of demand (read+write) misses
system.l2.demand_misses::total                   2644                       # number of demand (read+write) misses
system.l2.overall_misses::.cpu.inst               522                       # number of overall misses
system.l2.overall_misses::.cpu.data              2122                       # number of overall misses
system.l2.overall_misses::total                  2644                       # number of overall misses
system.l2.demand_miss_latency::.cpu.inst     40799500                       # number of demand (read+write) miss cycles
system.l2.demand_miss_latency::.cpu.data    184048500                       # number of demand (read+write) miss cycles
system.l2.demand_miss_latency::total        224848000                       # number of demand (read+write) miss cycles
system.l2.overall_miss_latency::.cpu.inst     40799500                       # number of overall miss cycles
system.l2.overall_miss_latency::.cpu.data    184048500                       # number of overall miss cycles
system.l2.overall_miss_latency::total       224848000                       # number of overall miss cycles
system.l2.demand_accesses::.cpu.inst             5902                       # number of demand (read+write) accesses
system.l2.demand_accesses::.cpu.data             2749                       # number of demand (read+write) accesses
system.l2.demand_accesses::total                 8651                       # number of demand (read+write) accesses
system.l2.overall_accesses::.cpu.inst            5902                       # number of overall (read+write) accesses
system.l2.overall_accesses::.cpu.data            2749                       # number of overall (read+write) accesses
system.l2.overall_accesses::total                8651                       # number of overall (read+write) accesses
system.l2.demand_miss_rate::.cpu.inst        0.088445                       # miss rate for demand accesses
system.l2.demand_miss_rate::.cpu.data        0.771917                       # miss rate for demand accesses
system.l2.demand_miss_rate::total            0.305629                       # miss rate for demand accesses
system.l2.overall_miss_rate::.cpu.inst       0.088445                       # miss rate for overall accesses
system.l2.overall_miss_rate::.cpu.data       0.771917                       # miss rate for overall accesses
system.l2.overall_miss_rate::total           0.305629                       # miss rate for overall accesses
system.l2.demand_avg_miss_latency::.cpu.inst 78159.961686                       # average overall miss latency
system.l2.demand_avg_miss_latency::.cpu.data 86733.506126                       # average overall miss latency
system.l2.demand_avg_miss_latency::total 85040.847201                       # average overall miss latency
system.l2.overall_avg_miss_latency::.cpu.inst 78159.961686                       # average overall miss latency
system.l2.overall_avg_miss_latency::.cpu.data 86733.506126                       # average overall miss latency
system.l2.overall_avg_miss_latency::total 85040.847201                       # average overall miss latency
system.l2.blocked_cycles::no_mshrs                  0                       # number of cycles access was blocked
system.l2.blocked_cycles::no_targets                0                       # number of cycles access was blocked
system.l2.blocked::no_mshrs                         0                       # number of cycles access was blocked
system.l2.blocked::no_targets                       0                       # number of cycles access was blocked
system.l2.avg_blocked_cycles::no_mshrs            nan                       # average number of cycles each access was blocked
system.l2.avg_blocked_cycles::no_targets          nan                       # average number of cycles each access was blocked
system.l2.demand_mshr_misses::.cpu.inst           522                       # number of demand (read+write) MSHR misses
system.l2.demand_mshr_misses::.cpu.data          2122                       # number of demand (read+write) MSHR misses
system.l2.demand_mshr_misses::total              2644                       # number of demand (read+write) MSHR misses
system.l2.overall_mshr_misses::.cpu.inst          522                       # number of overall MSHR misses
system.l2.overall_mshr_misses::.cpu.data         2122                       # number of overall MSHR misses
system.l2.overall_mshr_misses::total             2644                       # number of overall MSHR misses
system.l2.demand_mshr_miss_latency::.cpu.inst     35579500                       # number of demand (read+write) MSHR miss cycles
system.l2.demand_mshr_miss_latency::.cpu.data    162828500                       # number of demand (read+write) MSHR miss cycles
system.l2.demand_mshr_miss_latency::total    198408000                       # number of demand (read+write) MSHR miss cycles
system.l2.overall_mshr_miss_latency::.cpu.inst     35579500                       # number of overall MSHR miss cycles
system.l2.overall_mshr_miss_latency::.cpu.data    162828500                       # number of overall MSHR miss cycles
system.l2.overall_mshr_miss_latency::total    198408000                       # number of overall MSHR miss cycles
system.l2.demand_mshr_miss_rate::.cpu.inst     0.088445                       # mshr miss rate for demand accesses
system.l2.demand_mshr_miss_rate::.cpu.data     0.771917                       # mshr miss rate for demand accesses
system.l2.demand_mshr_miss_rate::total       0.305629                       # mshr miss rate for demand accesses
system.l2.overall_mshr_miss_rate::.cpu.inst     0.088445                       # mshr miss rate for overall accesses
system.l2.overall_mshr_miss_rate::.cpu.data     0.771917                       # mshr miss rate for overall accesses
system.l2.overall_mshr_miss_rate::total      0.305629                       # mshr miss rate for overall accesses
system.l2.demand_avg_mshr_miss_latency::.cpu.inst 68159.961686                       # average overall mshr miss latency
system.l2.demand_avg_mshr_miss_latency::.cpu.data 76733.506126                       # average overall mshr miss latency
system.l2.demand_avg_mshr_miss_latency::total 75040.847201                       # average overall mshr miss latency
system.l2.overall_avg_mshr_miss_latency::.cpu.inst 68159.961686                       # average overall mshr miss latency
system.l2.overall_avg_mshr_miss_latency::.cpu.data 76733.506126                       # average overall mshr miss latency
system.l2.overall_avg_mshr_miss_latency::total 75040.847201                       # average overall mshr miss latency
system.l2.replacements                              0                       # number of replacements
system.l2.WritebackDirty_hits::.writebacks         1828                       # number of WritebackDirty hits
system.l2.WritebackDirty_hits::total             1828                       # number of WritebackDirty hits
system.l2.WritebackDirty_accesses::.writebacks         1828                       # number of WritebackDirty accesses(hits+misses)
system.l2.WritebackDirty_accesses::total         1828                       # number of WritebackDirty accesses(hits+misses)
system.l2.WritebackClean_hits::.writebacks         5540                       # number of WritebackClean hits
system.l2.WritebackClean_hits::total             5540                       # number of WritebackClean hits
system.l2.WritebackClean_accesses::.writebacks         5540                       # number of WritebackClean accesses(hits+misses)
system.l2.WritebackClean_accesses::total         5540                       # number of WritebackClean accesses(hits+misses)
system.l2.ReadExReq_hits::.cpu.data                15                       # number of ReadExReq hits
system.l2.ReadExReq_hits::total                    15                       # number of ReadExReq hits
system.l2.ReadExReq_misses::.cpu.data            1693                       # number of ReadExReq misses
system.l2.ReadExReq_misses::total                1693                       # number of ReadExReq misses
system.l2.ReadExReq_miss_latency::.cpu.data    143714000                       # number of ReadExReq miss cycles
system.l2.ReadExReq_miss_latency::total     143714000                       # number of ReadExReq miss cycles
system.l2.ReadExReq_accesses::.cpu.data          1708                       # number of ReadExReq accesses(hits+misses)
system.l2.ReadExReq_accesses::total              1708                       # number of ReadExReq accesses(hits+misses)
system.l2.ReadExReq_miss_rate::.cpu.data     0.991218                       # miss rate for ReadExReq accesses
system.l2.ReadExReq_miss_rate::total         0.991218                       # miss rate for ReadExReq accesses
system.l2.ReadExReq_avg_miss_latency::.cpu.data 84887.182516                       # average ReadExReq miss latency
system.l2.ReadExReq_avg_miss_latency::total 84887.182516                       # average ReadExReq miss latency
system.l2.ReadExReq_mshr_misses::.cpu.data         1693                       # number of ReadExReq MSHR misses
system.l2.ReadExReq_mshr_misses::total           1693                       # number of ReadExReq MSHR misses
system.l2.ReadExReq_mshr_miss_latency::.cpu.data    126784000                       # number of ReadExReq MSHR miss cycles
system.l2.ReadExReq_mshr_miss_latency::total    126784000                       # number of ReadExReq MSHR miss cycles
system.l2.ReadExReq_mshr_miss_rate::.cpu.data     0.991218                       # mshr miss rate for ReadExReq accesses
system.l2.ReadExReq_mshr_miss_rate::total     0.991218                       # mshr miss rate for ReadExReq accesses
system.l2.ReadExReq_avg_mshr_miss_latency::.cpu.data 74887.182516                       # average ReadExReq mshr miss latency
system.l2.ReadExReq_avg_mshr_miss_latency::total 74887.182516                       # average ReadExReq mshr miss latency
system.l2.ReadCleanReq_hits::.cpu.inst           5380                       # number of ReadCleanReq hits
system.l2.ReadCleanReq_hits::total               5380                       # number of ReadCleanReq hits
system.l2.ReadCleanReq_misses::.cpu.inst          522                       # number of ReadCleanReq misses
system.l2.ReadCleanReq_misses::total              522                       # number of ReadCleanReq misses
system.l2.ReadCleanReq_miss_latency::.cpu.inst     40799500                       # number of ReadCleanReq miss cycles
system.l2.ReadCleanReq_miss_latency::total     40799500                       # number of ReadCleanReq miss cycles
system.l2.ReadCleanReq_accesses::.cpu.inst         5902                       # number of ReadCleanReq accesses(hits+misses)
system.l2.ReadCleanReq_accesses::total           5902                       # number of ReadCleanReq accesses(hits+misses)
system.l2.ReadCleanReq_miss_rate::.cpu.inst     0.088445                       # miss rate for ReadCleanReq accesses
system.l2.ReadCleanReq_miss_rate::total      0.088445                       # miss rate for ReadCleanReq accesses
system.l2.ReadCleanReq_avg_miss_latency::.cpu.inst 78159.961686                       # average ReadCleanReq miss latency
system.l2.ReadCleanReq_avg_miss_latency::total 78159.961686                       # average ReadCleanReq miss latency
system.l2.ReadCleanReq_mshr_misses::.cpu.inst          522                       # number of ReadCleanReq MSHR misses
system.l2.ReadCleanReq_mshr_misses::total          522                       # number of ReadCleanReq MSHR misses
system.l2.ReadCleanReq_mshr_miss_latency::.cpu.inst     35579500                       # number of ReadCleanReq MSHR miss cycles
system.l2.ReadCleanReq_mshr_miss_latency::total     35579500                       # number of ReadCleanReq MSHR miss cycles
system.l2.ReadCleanReq_mshr_miss_rate::.cpu.inst     0.088445                       # mshr miss rate for ReadCleanReq accesses
system.l2.ReadCleanReq_mshr_miss_rate::total     0.088445                       # mshr miss rate for ReadCleanReq accesses
system.l2.ReadCleanReq_avg_mshr_miss_latency::.cpu.inst 68159.961686                       # average ReadCleanReq mshr miss latency
system.l2.ReadCleanReq_avg_mshr_miss_latency::total 68159.961686                       # average ReadCleanReq mshr miss latency
system.l2.ReadSharedReq_hits::.cpu.data           612                       # number of ReadSharedReq hits
[...]
system.cpu.dcache.overall_miss_latency::total    368257117                       # number of overall miss cycles
system.cpu.dcache.demand_accesses::.cpu.data       170739                       # number of demand (read+write) accesses
system.cpu.dcache.demand_accesses::total       170739                       # number of demand (read+write) accesses
system.cpu.dcache.overall_accesses::.cpu.data       171085                       # number of overall (read+write) accesses
system.cpu.dcache.overall_accesses::total       171085                       # number of overall (read+write) accesses
system.cpu.dcache.demand_miss_rate::.cpu.data     0.031006                       # miss rate for demand accesses
system.cpu.dcache.demand_miss_rate::total     0.031006                       # miss rate for demand accesses
system.cpu.dcache.overall_miss_rate::.cpu.data     0.031177                       # miss rate for overall accesses
system.cpu.dcache.overall_miss_rate::total     0.031177                       # miss rate for overall accesses
system.cpu.dcache.demand_avg_miss_latency::.cpu.data 69561.223461                       # average overall miss latency
system.cpu.dcache.demand_avg_miss_latency::total 69561.223461                       # average overall miss latency
system.cpu.dcache.overall_avg_miss_latency::.cpu.data 69039.579490                       # average overall miss latency
system.cpu.dcache.overall_avg_miss_latency::total 69039.579490                       # average overall miss latency
system.cpu.dcache.blocked_cycles::no_mshrs        57279                       # number of cycles access was blocked
system.cpu.dcache.blocked_cycles::no_targets            0                       # number of cycles access was blocked
system.cpu.dcache.blocked::no_mshrs               714                       # number of cycles access was blocked
system.cpu.dcache.blocked::no_targets               0                       # number of cycles access was blocked
system.cpu.dcache.avg_blocked_cycles::no_mshrs    80.222689                       # average number of cycles each access was blocked
system.cpu.dcache.avg_blocked_cycles::no_targets          nan                       # average number of cycles each access was blocked
system.cpu.dcache.writebacks::.writebacks         1828                       # number of writebacks
system.cpu.dcache.writebacks::total              1828                       # number of writebacks
system.cpu.dcache.demand_mshr_hits::.cpu.data         2533                       # number of demand (read+write) MSHR hits
system.cpu.dcache.demand_mshr_hits::total         2533                       # number of demand (read+write) MSHR hits
system.cpu.dcache.overall_mshr_hits::.cpu.data         2533                       # number of overall MSHR hits
system.cpu.dcache.overall_mshr_hits::total         2533                       # number of overall MSHR hits
system.cpu.dcache.demand_mshr_misses::.cpu.data         2761                       # number of demand (read+write) MSHR misses
system.cpu.dcache.demand_mshr_misses::total         2761                       # number of demand (read+write) MSHR misses
system.cpu.dcache.overall_mshr_misses::.cpu.data         2763                       # number of overall MSHR misses
system.cpu.dcache.overall_mshr_misses::total         2763                       # number of overall MSHR misses
system.cpu.dcache.demand_mshr_miss_latency::.cpu.data    195934445                       # number of demand (read+write) MSHR miss cycles
system.cpu.dcache.demand_mshr_miss_latency::total    195934445                       # number of demand (read+write) MSHR miss cycles
system.cpu.dcache.overall_mshr_miss_latency::.cpu.data    196118945                       # number of overall MSHR miss cycles
system.cpu.dcache.overall_mshr_miss_latency::total    196118945                       # number of overall MSHR miss cycles
system.cpu.dcache.demand_mshr_miss_rate::.cpu.data     0.016171                       # mshr miss rate for demand accesses
system.cpu.dcache.demand_mshr_miss_rate::total     0.016171                       # mshr miss rate for demand accesses
system.cpu.dcache.overall_mshr_miss_rate::.cpu.data     0.016150                       # mshr miss rate for overall accesses
system.cpu.dcache.overall_mshr_miss_rate::total     0.016150                       # mshr miss rate for overall accesses
system.cpu.dcache.demand_avg_mshr_miss_latency::.cpu.data 70965.028975                       # average overall mshr miss latency
system.cpu.dcache.demand_avg_mshr_miss_latency::total 70965.028975                       # average overall mshr miss latency
system.cpu.dcache.overall_avg_mshr_miss_latency::.cpu.data 70980.436120                       # average overall mshr miss latency
system.cpu.dcache.overall_avg_mshr_miss_latency::total 70980.436120                       # average overall mshr miss latency
system.cpu.dcache.replacements                   2252                       # number of replacements
system.cpu.dcache.ReadReq_hits::.cpu.data        79432                       # number of ReadReq hits
system.cpu.dcache.ReadReq_hits::total           79432                       # number of ReadReq hits
system.cpu.dcache.ReadReq_misses::.cpu.data         1913                       # number of ReadReq misses
system.cpu.dcache.ReadReq_misses::total          1913                       # number of ReadReq misses
system.cpu.dcache.ReadReq_miss_latency::.cpu.data    103156500                       # number of ReadReq miss cycles
system.cpu.dcache.ReadReq_miss_latency::total    103156500                       # number of ReadReq miss cycles
system.cpu.dcache.ReadReq_accesses::.cpu.data        81345                       # number of ReadReq accesses(hits+misses)
system.cpu.dcache.ReadReq_accesses::total        81345                       # number of ReadReq accesses(hits+misses)
system.cpu.dcache.ReadReq_miss_rate::.cpu.data     0.023517                       # miss rate for ReadReq accesses
system.cpu.dcache.ReadReq_miss_rate::total     0.023517                       # miss rate for ReadReq accesses
system.cpu.dcache.ReadReq_avg_miss_latency::.cpu.data 53923.941453                       # average ReadReq miss latency
system.cpu.dcache.ReadReq_avg_miss_latency::total 53923.941453                       # average ReadReq miss latency
system.cpu.dcache.ReadReq_mshr_hits::.cpu.data          873                       # number of ReadReq MSHR hits
system.cpu.dcache.ReadReq_mshr_hits::total          873                       # number of ReadReq MSHR hits
system.cpu.dcache.ReadReq_mshr_misses::.cpu.data         1040                       # number of ReadReq MSHR misses
system.cpu.dcache.ReadReq_mshr_misses::total         1040                       # number of ReadReq MSHR misses
system.cpu.dcache.ReadReq_mshr_miss_latency::.cpu.data     48363500                       # number of ReadReq MSHR miss cycles
system.cpu.dcache.ReadReq_mshr_miss_latency::total     48363500                       # number of ReadReq MSHR miss cycles
system.cpu.dcache.ReadReq_mshr_miss_rate::.cpu.data     0.012785                       # mshr miss rate for ReadReq accesses
system.cpu.dcache.ReadReq_mshr_miss_rate::total     0.012785                       # mshr miss rate for ReadReq accesses
system.cpu.dcache.ReadReq_avg_mshr_miss_latency::.cpu.data 46503.365385                       # average ReadReq mshr miss latency
system.cpu.dcache.ReadReq_avg_mshr_miss_latency::total 46503.365385                       # average ReadReq mshr miss latency
system.cpu.dcache.WriteReq_hits::.cpu.data        86013                       # number of WriteReq hits
system.cpu.dcache.WriteReq_hits::total          86013                       # number of WriteReq hits
system.cpu.dcache.WriteReq_misses::.cpu.data         3368                       # number of WriteReq misses
system.cpu.dcache.WriteReq_misses::total         3368                       # number of WriteReq misses
system.cpu.dcache.WriteReq_miss_latency::.cpu.data    264687122                       # number of WriteReq miss cycles
system.cpu.dcache.WriteReq_miss_latency::total    264687122                       # number of WriteReq miss cycles
system.cpu.dcache.WriteReq_accesses::.cpu.data        89381                       # number of WriteReq accesses(hits+misses)
system.cpu.dcache.WriteReq_accesses::total        89381                       # number of WriteReq accesses(hits+misses)
system.cpu.dcache.WriteReq_miss_rate::.cpu.data     0.037681                       # miss rate for WriteReq accesses
system.cpu.dcache.WriteReq_miss_rate::total     0.037681                       # miss rate for WriteReq accesses
system.cpu.dcache.WriteReq_avg_miss_latency::.cpu.data 78588.812945                       # average WriteReq miss latency
system.cpu.dcache.WriteReq_avg_miss_latency::total 78588.812945                       # average WriteReq miss latency
system.cpu.dcache.WriteReq_mshr_hits::.cpu.data         1660                       # number of WriteReq MSHR hits
system.cpu.dcache.WriteReq_mshr_hits::total         1660                       # number of WriteReq MSHR hits
system.cpu.dcache.WriteReq_mshr_misses::.cpu.data         1708                       # number of WriteReq MSHR misses
system.cpu.dcache.WriteReq_mshr_misses::total         1708                       # number of WriteReq MSHR misses
system.cpu.dcache.WriteReq_mshr_miss_latency::.cpu.data    147170450                       # number of WriteReq MSHR miss cycles
system.cpu.dcache.WriteReq_mshr_miss_latency::total    147170450                       # number of WriteReq MSHR miss cycles
system.cpu.dcache.WriteReq_mshr_miss_rate::.cpu.data     0.019109                       # mshr miss rate for WriteReq accesses
system.cpu.dcache.WriteReq_mshr_miss_rate::total     0.019109                       # mshr miss rate for WriteReq accesses
system.cpu.dcache.WriteReq_avg_mshr_miss_latency::.cpu.data 86165.368852                       # average WriteReq mshr miss latency
system.cpu.dcache.WriteReq_avg_mshr_miss_latency::total 86165.368852                       # average WriteReq mshr miss latency
system.cpu.dcache.SoftPFReq_hits::.cpu.data          306                       # number of SoftPFReq hits
system.cpu.dcache.SoftPFReq_hits::total           306                       # number of SoftPFReq hits
system.cpu.dcache.SoftPFReq_misses::.cpu.data           40                       # number of SoftPFReq misses
system.cpu.dcache.SoftPFReq_misses::total           40                       # number of SoftPFReq misses
system.cpu.dcache.SoftPFReq_accesses::.cpu.data          346                       # number of SoftPFReq accesses(hits+misses)
system.cpu.dcache.SoftPFReq_accesses::total          346                       # number of SoftPFReq accesses(hits+misses)
system.cpu.dcache.SoftPFReq_miss_rate::.cpu.data     0.115607                       # miss rate for SoftPFReq accesses
system.cpu.dcache.SoftPFReq_miss_rate::total     0.115607                       # miss rate for SoftPFReq accesses
system.cpu.dcache.SoftPFReq_mshr_misses::.cpu.data            2                       # number of SoftPFReq MSHR misses
system.cpu.dcache.SoftPFReq_mshr_misses::total            2                       # number of SoftPFReq MSHR misses
system.cpu.dcache.SoftPFReq_mshr_miss_latency::.cpu.data       184500                       # number of SoftPFReq MSHR miss cycles
system.cpu.dcache.SoftPFReq_mshr_miss_latency::total       184500                       # number of SoftPFReq MSHR miss cycles
system.cpu.dcache.SoftPFReq_mshr_miss_rate::.cpu.data     0.005780                       # mshr miss rate for SoftPFReq accesses
system.cpu.dcache.SoftPFReq_mshr_miss_rate::total     0.005780                       # mshr miss rate for SoftPFReq accesses
system.cpu.dcache.SoftPFReq_avg_mshr_miss_latency::.cpu.data        92250                       # average SoftPFReq mshr miss latency
system.cpu.dcache.SoftPFReq_avg_mshr_miss_latency::total        92250                       # average SoftPFReq mshr miss latency
system.cpu.dcache.WriteLineReq_misses::.cpu.data           13                       # number of WriteLineReq misses
system.cpu.dcache.WriteLineReq_misses::total           13                       # number of WriteLineReq misses
system.cpu.dcache.WriteLineReq_miss_latency::.cpu.data       413495                       # number of WriteLineReq miss cycles
system.cpu.dcache.WriteLineReq_miss_latency::total       413495                       # number of WriteLineReq miss cycles
system.cpu.dcache.WriteLineReq_accesses::.cpu.data           13                       # number of WriteLineReq accesses(hits+misses)
system.cpu.dcache.WriteLineReq_accesses::total           13                       # number of WriteLineReq accesses(hits+misses)
system.cpu.dcache.WriteLineReq_miss_rate::.cpu.data            1                       # miss rate for WriteLineReq accesses
system.cpu.dcache.WriteLineReq_miss_rate::total            1                       # miss rate for WriteLineReq accesses
system.cpu.dcache.WriteLineReq_avg_miss_latency::.cpu.data 31807.307692                       # average WriteLineReq miss latency
system.cpu.dcache.WriteLineReq_avg_miss_latency::total 31807.307692                       # average WriteLineReq miss latency
system.cpu.dcache.WriteLineReq_mshr_misses::.cpu.data           13                       # number of WriteLineReq MSHR misses
system.cpu.dcache.WriteLineReq_mshr_misses::total           13                       # number of WriteLineReq MSHR misses
system.cpu.dcache.WriteLineReq_mshr_miss_latency::.cpu.data       400495                       # number of WriteLineReq MSHR miss cycles
system.cpu.dcache.WriteLineReq_mshr_miss_latency::total       400495                       # number of WriteLineReq MSHR miss cycles
system.cpu.dcache.WriteLineReq_mshr_miss_rate::.cpu.data            1                       # mshr miss rate for WriteLineReq accesses
system.cpu.dcache.WriteLineReq_mshr_miss_rate::total            1                       # mshr miss rate for WriteLineReq accesses
system.cpu.dcache.WriteLineReq_avg_mshr_miss_latency::.cpu.data 30807.307692                       # average WriteLineReq mshr miss latency
system.cpu.dcache.WriteLineReq_avg_mshr_miss_latency::total 30807.307692                       # average WriteLineReq mshr miss latency
system.cpu.dcache.LoadLockedReq_hits::.cpu.data          337                       # number of LoadLockedReq hits
system.cpu.dcache.LoadLockedReq_hits::total          337                       # number of LoadLockedReq hits
system.cpu.dcache.LoadLockedReq_misses::.cpu.data          299                       # number of LoadLockedReq misses
system.cpu.dcache.LoadLockedReq_misses::total          299                       # number of LoadLockedReq misses
system.cpu.dcache.LoadLockedReq_miss_latency::.cpu.data      4316500                       # number of LoadLockedReq miss cycles
system.cpu.dcache.LoadLockedReq_miss_latency::total      4316500                       # number of LoadLockedReq miss cycles
system.cpu.dcache.LoadLockedReq_accesses::.cpu.data          636                       # number of LoadLockedReq accesses(hits+misses)
system.cpu.dcache.LoadLockedReq_accesses::total          636                       # number of LoadLockedReq accesses(hits+misses)
system.cpu.dcache.LoadLockedReq_miss_rate::.cpu.data     0.470126                       # miss rate for LoadLockedReq accesses
system.cpu.dcache.LoadLockedReq_miss_rate::total     0.470126                       # miss rate for LoadLockedReq accesses
system.cpu.dcache.LoadLockedReq_avg_miss_latency::.cpu.data 14436.454849                       # average LoadLockedReq miss latency
system.cpu.dcache.LoadLockedReq_avg_miss_latency::total 14436.454849                       # average LoadLockedReq miss latency
system.cpu.dcache.LoadLockedReq_mshr_hits::.cpu.data          298                       # number of LoadLockedReq MSHR hits
system.cpu.dcache.LoadLockedReq_mshr_hits::total          298                       # number of LoadLockedReq MSHR hits
system.cpu.dcache.LoadLockedReq_mshr_misses::.cpu.data            1                       # number of LoadLockedReq MSHR misses
system.cpu.dcache.LoadLockedReq_mshr_misses::total            1                       # number of LoadLockedReq MSHR misses
system.cpu.dcache.LoadLockedReq_mshr_miss_latency::.cpu.data        85000                       # number of LoadLockedReq MSHR miss cycles
system.cpu.dcache.LoadLockedReq_mshr_miss_latency::total        85000                       # number of LoadLockedReq MSHR miss cycles
system.cpu.dcache.LoadLockedReq_mshr_miss_rate::.cpu.data     0.001572                       # mshr miss rate for LoadLockedReq accesses
system.cpu.dcache.LoadLockedReq_mshr_miss_rate::total     0.001572                       # mshr miss rate for LoadLockedReq accesses
system.cpu.dcache.LoadLockedReq_avg_mshr_miss_latency::.cpu.data        85000                       # average LoadLockedReq mshr miss latency
system.cpu.dcache.LoadLockedReq_avg_mshr_miss_latency::total        85000                       # average LoadLockedReq mshr miss latency
system.cpu.dcache.StoreCondReq_hits::.cpu.data          626                       # number of StoreCondReq hits
system.cpu.dcache.StoreCondReq_hits::total          626                       # number of StoreCondReq hits
system.cpu.dcache.StoreCondReq_accesses::.cpu.data          626                       # number of StoreCondReq accesses(hits+misses)
system.cpu.dcache.StoreCondReq_accesses::total          626                       # number of StoreCondReq accesses(hits+misses)
system.cpu.dcache.power_state.pwrStateResidencyTicks::UNDEFINED    264682500                       # Cumulative time (in ticks) in various power states
system.cpu.dcache.tags.tagsinuse           439.841952                       # Cycle average of tags in use
system.cpu.dcache.tags.total_refs              169478                       # Total number of references to valid blocks.
system.cpu.dcache.tags.sampled_refs              2764                       # Sample count of references to valid blocks.
system.cpu.dcache.tags.avg_refs             61.316208                       # Average number of references to valid blocks.
system.cpu.dcache.tags.warmup_cycle            176500                       # Cycle when the warmup percentage was hit.
system.cpu.dcache.tags.occ_blocks::.cpu.data   439.841952                       # Average occupied blocks per requestor
system.cpu.dcache.tags.occ_percent::.cpu.data     0.859066                       # Average percentage of cache occupancy
system.cpu.dcache.tags.occ_percent::total     0.859066                       # Average percentage of cache occupancy
system.cpu.dcache.tags.occ_task_id_blocks::1024          512                       # Occupied blocks per task id
system.cpu.dcache.tags.age_task_id_blocks_1024::0           85                       # Occupied blocks per task id
system.cpu.dcache.tags.age_task_id_blocks_1024::1          389                       # Occupied blocks per task id
system.cpu.dcache.tags.age_task_id_blocks_1024::2           38                       # Occupied blocks per task id
system.cpu.dcache.tags.occ_task_id_percent::1024            1                       # Percentage of cache occupancy per task id
system.cpu.dcache.tags.tag_accesses            347458                       # Number of tag accesses
system.cpu.dcache.tags.data_accesses           347458                       # Number of data accesses
system.cpu.dcache.tags.power_state.pwrStateResidencyTicks::UNDEFINED    264682500                       # Cumulative time (in ticks) in various power states
system.cpu.power_state.pwrStateResidencyTicks::ON    264682500                       # Cumulative time (in ticks) in various power states

---------- End Simulation Statistics   ----------
