
---------- Begin Simulation Statistics ----------
final_tick                                  468934500                       # Number of ticks from beginning of simulation (restored from checkpoints and never reset)
host_inst_rate                                 144656                       # Simulator instruction rate (inst/s)
host_mem_usage                                 858000                       # Number of bytes of host memory used
host_op_rate                                   161351                       # Simulator op (including micro ops) rate (op/s)
host_seconds                                     6.91                       # Real time elapsed on the host
host_tick_rate                               67832424                       # Simulator tick rate (ticks/s)
sim_freq                                 1000000000000                       # Frequency of simulated ticks
sim_insts                                     1000000                       # Number of instructions simulated
sim_ops                                       1115434                       # Number of ops (including micro ops) simulated
sim_seconds                                  0.000469                       # Number of seconds simulated
sim_ticks                                   468934500                       # Number of ticks simulated
system.cpu.branchPred.BTBCorrect                    0                       # Number of correct BTB predictions (this stat may not work properly.
system.cpu.branchPred.BTBHitPct             97.262346                       # BTB Hit Percentage
system.cpu.branchPred.BTBHits                  141471                       # Number of BTB hits
system.cpu.branchPred.BTBLookups               145453                       # Number of BTB lookups
system.cpu.branchPred.RASInCorrect                  3                       # Number of incorrect RAS predictions.
system.cpu.branchPred.condIncorrect              9391                       # Number of conditional branches incorrect
system.cpu.branchPred.condPredicted            220443                       # Number of conditional branches predicted
system.cpu.branchPred.indirectHits               3812                       # Number of indirect target hits.
system.cpu.branchPred.indirectLookups            4741                       # Number of indirect predictor lookups.
system.cpu.branchPred.indirectMisses              929                       # Number of indirect misses.
system.cpu.branchPred.lookups                  302124                       # Number of BP lookups
system.cpu.branchPred.loop_predictor.loopPredictorCorrect        95777                       # Number of times the loop predictor is the provider and the prediction is correct
system.cpu.branchPred.loop_predictor.loopPredictorWrong        77037                       # Number of times the loop predictor is the provider and the prediction is wrong
system.cpu.branchPred.statistical_corrector.scPredictorCorrect        92105                       # Number of time the SC predictor is the provider and the prediction is correct
system.cpu.branchPred.statistical_corrector.scPredictorWrong        80709                       # Number of time the SC predictor is the provider and the prediction is wrong
system.cpu.branchPred.tage.bimodalAltMatchProviderCorrect          741                       # Number of times TAGE Alt Match is the bimodal and it is the provider and the prediction is correct
system.cpu.branchPred.tage.bimodalAltMatchProviderWrong          220                       # Number of times TAGE Alt Match is the bimodal and it is the provider and the prediction is wrong
system.cpu.branchPred.tage.tageAltMatchProvider::0        20202                       # TAGE provider for alt match
system.cpu.branchPred.tage.tageAltMatchProvider::1            0                       # TAGE provider for alt match
system.cpu.branchPred.tage.tageAltMatchProvider::2         1973                       # TAGE provider for alt match
system.cpu.branchPred.tage.tageAltMatchProvider::3            0                       # TAGE provider for alt match
system.cpu.branchPred.tage.tageAltMatchProvider::4          864                       # TAGE provider for alt match
system.cpu.branchPred.tage.tageAltMatchProvider::5            0                       # TAGE provider for alt match
system.cpu.branchPred.tage.tageAltMatchProvider::6         1733                       # TAGE provider for alt match
system.cpu.branchPred.tage.tageAltMatchProvider::7         3428                       # TAGE provider for alt match
system.cpu.branchPred.tage.tageAltMatchProvider::8         1457                       # TAGE provider for alt match
system.cpu.branchPred.tage.tageAltMatchProvider::9          897                       # TAGE provider for alt match
system.cpu.branchPred.tage.tageAltMatchProvider::10         1381                       # TAGE provider for alt match
system.cpu.branchPred.tage.tageAltMatchProvider::11         3210                       # TAGE provider for alt match
system.cpu.branchPred.tage.tageAltMatchProvider::12         3917                       # TAGE provider for alt match
system.cpu.branchPred.tage.tageAltMatchProvider::13         4292                       # TAGE provider for alt match
system.cpu.branchPred.tage.tageAltMatchProvider::14         4162                       # TAGE provider for alt match
system.cpu.branchPred.tage.tageAltMatchProvider::15         2969                       # TAGE provider for alt match
system.cpu.branchPred.tage.tageAltMatchProvider::16         1781                       # TAGE provider for alt match
system.cpu.branchPred.tage.tageAltMatchProvider::17          638                       # TAGE provider for alt match
system.cpu.branchPred.tage.tageAltMatchProvider::18         1316                       # TAGE provider for alt match
system.cpu.branchPred.tage.tageAltMatchProvider::19         3060                       # TAGE provider for alt match
system.cpu.branchPred.tage.tageAltMatchProvider::20          386                       # TAGE provider for alt match
system.cpu.branchPred.tage.tageAltMatchProvider::21            0                       # TAGE provider for alt match
system.cpu.branchPred.tage.tageAltMatchProvider::22          476                       # TAGE provider for alt match
system.cpu.branchPred.tage.tageAltMatchProvider::23            0                       # TAGE provider for alt match
system.cpu.branchPred.tage.tageAltMatchProvider::24          251                       # TAGE provider for alt match
system.cpu.branchPred.tage.tageAltMatchProvider::25            0                       # TAGE provider for alt match
system.cpu.branchPred.tage.tageAltMatchProvider::26          314                       # TAGE provider for alt match
system.cpu.branchPred.tage.tageAltMatchProvider::27            0                       # TAGE provider for alt match
system.cpu.branchPred.tage.tageAltMatchProvider::28          142                       # TAGE provider for alt match
system.cpu.branchPred.tage.tageAltMatchProvider::29            0                       # TAGE provider for alt match
system.cpu.branchPred.tage.tageAltMatchProvider::30            0                       # TAGE provider for alt match
system.cpu.branchPred.tage.tageAltMatchProviderCorrect         1900                       # Number of times TAGE Alt Match is the provider and the prediction is correct
system.cpu.branchPred.tage.tageAltMatchProviderWouldHaveHit          617                       # Number of times TAGE Longest Match is the provider, the prediction is wrong and Alt Match prediction was correct
system.cpu.branchPred.tage.tageAltMatchProviderWrong          883                       # Number of times TAGE Alt Match is the provider and the prediction is wrong
system.cpu.branchPred.tage.tageBimodalProviderCorrect       108110                       # Number of times there are no hits on the TAGE tables and the bimodal prediction is correct
system.cpu.branchPred.tage.tageBimodalProviderWrong         2099                       # Number of times there are no hits on the TAGE tables and the bimodal prediction is wrong
system.cpu.branchPred.tage.tageLongestMatchProvider::0            0                       # TAGE provider for longest match
system.cpu.branchPred.tage.tageLongestMatchProvider::1            0                       # TAGE provider for longest match
system.cpu.branchPred.tage.tageLongestMatchProvider::2         2788                       # TAGE provider for longest match
system.cpu.branchPred.tage.tageLongestMatchProvider::3            0                       # TAGE provider for longest match
system.cpu.branchPred.tage.tageLongestMatchProvider::4         1015                       # TAGE provider for longest match
system.cpu.branchPred.tage.tageLongestMatchProvider::5            0                       # TAGE provider for longest match
system.cpu.branchPred.tage.tageLongestMatchProvider::6         3520                       # TAGE provider for longest match
system.cpu.branchPred.tage.tageLongestMatchProvider::7         4793                       # TAGE provider for longest match
system.cpu.branchPred.tage.tageLongestMatchProvider::8         1956                       # TAGE provider for longest match
system.cpu.branchPred.tage.tageLongestMatchProvider::9         1090                       # TAGE provider for longest match
system.cpu.branchPred.tage.tageLongestMatchProvider::10         4841                       # TAGE provider for longest match
system.cpu.branchPred.tage.tageLongestMatchProvider::11         4720                       # TAGE provider for longest match
system.cpu.branchPred.tage.tageLongestMatchProvider::12         2582                       # TAGE provider for longest match
system.cpu.branchPred.tage.tageLongestMatchProvider::13         4137                       # TAGE provider for longest match
system.cpu.branchPred.tage.tageLongestMatchProvider::14         3607                       # TAGE provider for longest match
system.cpu.branchPred.tage.tageLongestMatchProvider::15         3667                       # TAGE provider for longest match
system.cpu.branchPred.tage.tageLongestMatchProvider::16         4716                       # TAGE provider for longest match
system.cpu.branchPred.tage.tageLongestMatchProvider::17         4073                       # TAGE provider for longest match
system.cpu.branchPred.tage.tageLongestMatchProvider::18         1191                       # TAGE provider for longest match
system.cpu.branchPred.tage.tageLongestMatchProvider::19         2928                       # TAGE provider for longest match
system.cpu.branchPred.tage.tageLongestMatchProvider::20          887                       # TAGE provider for longest match
system.cpu.branchPred.tage.tageLongestMatchProvider::21            0                       # TAGE provider for longest match
system.cpu.branchPred.tage.tageLongestMatchProvider::22         4328                       # TAGE provider for longest match
system.cpu.branchPred.tage.tageLongestMatchProvider::23            0                       # TAGE provider for longest match
system.cpu.branchPred.tage.tageLongestMatchProvider::24          515                       # TAGE provider for longest match
system.cpu.branchPred.tage.tageLongestMatchProvider::25            0                       # TAGE provider for longest match
system.cpu.branchPred.tage.tageLongestMatchProvider::26          637                       # TAGE provider for longest match
system.cpu.branchPred.tage.tageLongestMatchProvider::27            0                       # TAGE provider for longest match
system.cpu.branchPred.tage.tageLongestMatchProvider::28          510                       # TAGE provider for longest match
system.cpu.branchPred.tage.tageLongestMatchProvider::29            0                       # TAGE provider for longest match
system.cpu.branchPred.tage.tageLongestMatchProvider::30          348                       # TAGE provider for longest match
system.cpu.branchPred.tage.tageLongestMatchProviderCorrect        54309                       # Number of times TAGE Longest Match is the provider and the prediction is correct
system.cpu.branchPred.tage.tageLongestMatchProviderWouldHaveHit          445                       # Number of times TAGE Alt Match is the provider, the prediction is wrong and Longest Match prediction was correct
system.cpu.branchPred.tage.tageLongestMatchProviderWrong         1757                       # Number of times TAGE Longest Match is the provider and the prediction is wrong
system.cpu.branchPred.usedRAS                   30296                       # Number of times the RAS was used to get a target.
system.cpu.branchPredindirectMispredicted          519                       # Number of mispredicted indirect branches.
system.cpu.cc_regfile_reads                    359643                       # number of cc regfile reads
system.cpu.cc_regfile_writes                   343424                       # number of cc regfile writes
system.cpu.commit.amos                              0                       # Number of atomic instructions committed
system.cpu.commit.branchMispredicts              8332                       # The number of times a branch was mispredicted
system.cpu.commit.branches                     231894                       # Number of branches committed
system.cpu.commit.bw_lim_events                 61305                       # number cycles where commit BW limit reached
system.cpu.commit.commitNonSpecStalls             245                       # The number of times commit has been forced to stall to communicate backwards
system.cpu.commit.commitSquashedInsts          150260                       # The number of squashed insts skipped by commit
system.cpu.commit.committedInsts              1001506                       # Number of instructions committed
system.cpu.commit.committedOps                1116940                       # Number of ops (including micro ops) committed
system.cpu.commit.committed_per_cycle::samples       825652                       # Number of insts commited each cycle
system.cpu.commit.committed_per_cycle::mean     1.352798                       # Number of insts commited each cycle
system.cpu.commit.committed_per_cycle::stdev     2.277638                       # Number of insts commited each cycle
system.cpu.commit.committed_per_cycle::underflows            0      0.00%      0.00% # Number of insts commited each cycle
system.cpu.commit.committed_per_cycle::0       431090     52.21%     52.21% # Number of insts commited each cycle
system.cpu.commit.committed_per_cycle::1       199057     24.11%     76.32% # Number of insts commited each cycle
system.cpu.commit.committed_per_cycle::2        65640      7.95%     84.27% # Number of insts commited each cycle
system.cpu.commit.committed_per_cycle::3        25941      3.14%     87.41% # Number of insts commited each cycle
system.cpu.commit.committed_per_cycle::4        18585      2.25%     89.66% # Number of insts commited each cycle
system.cpu.commit.committed_per_cycle::5         7816      0.95%     90.61% # Number of insts commited each cycle
system.cpu.commit.committed_per_cycle::6         8606      1.04%     91.65% # Number of insts commited each cycle
system.cpu.commit.committed_per_cycle::7         7612      0.92%     92.57% # Number of insts commited each cycle
system.cpu.commit.committed_per_cycle::8        61305      7.43%    100.00% # Number of insts commited each cycle
system.cpu.commit.committed_per_cycle::overflows            0      0.00%    100.00% # Number of insts commited each cycle
system.cpu.commit.committed_per_cycle::min_value            0                       # Number of insts commited each cycle
system.cpu.commit.committed_per_cycle::max_value            8                       # Number of insts commited each cycle
system.cpu.commit.committed_per_cycle::total       825652                       # Number of insts commited each cycle
system.cpu.commit.fp_insts                          0                       # Number of committed floating point instructions.
system.cpu.commit.function_calls                22009                       # Number of function calls committed.
system.cpu.commit.int_insts                   1003889                       # Number of committed integer instructions.
system.cpu.commit.loads                        188126                       # Number of loads committed
system.cpu.commit.membars                         234                       # Number of memory barriers committed
system.cpu.commit.op_class_0::No_OpClass            8      0.00%      0.00% # Class of committed instruction
system.cpu.commit.op_class_0::IntAlu           793381     71.03%     71.03% # Class of committed instruction
system.cpu.commit.op_class_0::IntMult             444      0.04%     71.07% # Class of committed instruction
system.cpu.commit.op_class_0::IntDiv               14      0.00%     71.07% # Class of committed instruction
system.cpu.commit.op_class_0::FloatAdd              0      0.00%     71.07% # Class of committed instruction
system.cpu.commit.op_class_0::FloatCmp             20      0.00%     71.08% # Class of committed instruction
system.cpu.commit.op_class_0::FloatCvt              0      0.00%     71.08% # Class of committed instruction
system.cpu.commit.op_class_0::FloatMult             0      0.00%     71.08% # Class of committed instruction
system.cpu.commit.op_class_0::FloatMultAcc            0      0.00%     71.08% # Class of committed instruction
system.cpu.commit.op_class_0::FloatDiv              0      0.00%     71.08% # Class of committed instruction
system.cpu.commit.op_class_0::FloatMisc            54      0.00%     71.08% # Class of committed instruction
system.cpu.commit.op_class_0::FloatSqrt             0      0.00%     71.08% # Class of committed instruction
system.cpu.commit.op_class_0::SimdAdd              19      0.00%     71.08% # Class of committed instruction
system.cpu.commit.op_class_0::SimdAddAcc            0      0.00%     71.08% # Class of committed instruction
system.cpu.commit.op_class_0::SimdAlu              12      0.00%     71.08% # Class of committed instruction
system.cpu.commit.op_class_0::SimdCmp              16      0.00%     71.08% # Class of committed instruction
system.cpu.commit.op_class_0::SimdCvt               0      0.00%     71.08% # Class of committed instruction
system.cpu.commit.op_class_0::SimdMisc             61      0.01%     71.09% # Class of committed instruction
system.cpu.commit.op_class_0::SimdMult              0      0.00%     71.09% # Class of committed instruction
system.cpu.commit.op_class_0::SimdMultAcc            0      0.00%     71.09% # Class of committed instruction
system.cpu.commit.op_class_0::SimdShift             0      0.00%     71.09% # Class of committed instruction
system.cpu.commit.op_class_0::SimdShiftAcc            0      0.00%     71.09% # Class of committed instruction
system.cpu.commit.op_class_0::SimdDiv               0      0.00%     71.09% # Class of committed instruction
system.cpu.commit.op_class_0::SimdSqrt              0      0.00%     71.09% # Class of committed instruction
system.cpu.commit.op_class_0::SimdFloatAdd            0      0.00%     71.09% # Class of committed instruction
system.cpu.commit.op_class_0::SimdFloatAlu            0      0.00%     71.09% # Class of committed instruction
system.cpu.commit.op_class_0::SimdFloatCmp            0      0.00%     71.09% # Class of committed instruction
system.cpu.commit.op_class_0::SimdFloatCvt            0      0.00%     71.09% # Class of committed instruction
system.cpu.commit.op_class_0::SimdFloatDiv            0      0.00%     71.09% # Class of committed instruction
system.cpu.commit.op_class_0::SimdFloatMisc            0      0.00%     71.09% # Class of committed instruction
system.cpu.commit.op_class_0::SimdFloatMult            0      0.00%     71.09% # Class of committed instruction
system.cpu.commit.op_class_0::SimdFloatMultAcc            0      0.00%     71.09% # Class of committed instruction
system.cpu.commit.op_class_0::SimdFloatSqrt            0      0.00%     71.09% # Class of committed instruction
system.cpu.commit.op_class_0::SimdReduceAdd            0      0.00%     71.09% # Class of committed instruction
system.cpu.commit.op_class_0::SimdReduceAlu            0      0.00%     71.09% # Class of committed instruction
system.cpu.commit.op_class_0::SimdReduceCmp            0      0.00%     71.09% # Class of committed instruction
system.cpu.commit.op_class_0::SimdFloatReduceAdd            0      0.00%     71.09% # Class of committed instruction
system.cpu.commit.op_class_0::SimdFloatReduceCmp            0      0.00%     71.09% # Class of committed instruction
system.cpu.commit.op_class_0::SimdAes               0      0.00%     71.09% # Class of committed instruction
system.cpu.commit.op_class_0::SimdAesMix            0      0.00%     71.09% # Class of committed instruction
system.cpu.commit.op_class_0::SimdSha1Hash            0      0.00%     71.09% # Class of committed instruction
system.cpu.commit.op_class_0::SimdSha1Hash2            0      0.00%     71.09% # Class of committed instruction
system.cpu.commit.op_class_0::SimdSha256Hash            0      0.00%     71.09% # Class of committed instruction
system.cpu.commit.op_class_0::SimdSha256Hash2            0      0.00%     71.09% # Class of committed instruction
system.cpu.commit.op_class_0::SimdShaSigma2            0      0.00%     71.09% # Class of committed instruction
system.cpu.commit.op_class_0::SimdShaSigma3            0      0.00%     71.09% # Class of committed instruction
system.cpu.commit.op_class_0::SimdPredAlu            0      0.00%     71.09% # Class of committed instruction
system.cpu.commit.op_class_0::MemRead          188126     16.84%     87.93% # Class of committed instruction
system.cpu.commit.op_class_0::MemWrite         134785     12.07%    100.00% # Class of committed instruction
system.cpu.commit.op_class_0::FloatMemRead            0      0.00%    100.00% # Class of committed instruction
system.cpu.commit.op_class_0::FloatMemWrite            0      0.00%    100.00% # Class of committed instruction
system.cpu.commit.op_class_0::IprAccess             0      0.00%    100.00% # Class of committed instruction
system.cpu.commit.op_class_0::InstPrefetch            0      0.00%    100.00% # Class of committed instruction
system.cpu.commit.op_class_0::total           1116940                       # Class of committed instruction
system.cpu.commit.refs                         322911                       # Number of memory references committed
system.cpu.commit.swp_count                         0                       # Number of s/w prefetches committed
system.cpu.commit.vec_insts                      1515                       # Number of committed Vector instructions.
system.cpu.committedInsts                     1000000                       # Number of Instructions Simulated
system.cpu.committedOps                       1115434                       # Number of Ops (including micro ops) Simulated
system.cpu.cpi                               0.937870                       # CPI: Cycles Per Instruction
system.cpu.cpi_total                         0.937870                       # CPI: Total CPI of All Threads
system.cpu.decode.BlockedCycles                351151                       # Number of cycles decode is blocked
system.cpu.decode.BranchMispred                  1084                       # Number of times decode detected a branch misprediction
system.cpu.decode.BranchResolved               131130                       # Number of times decode resolved a branch
system.cpu.decode.DecodedInsts                1328223                       # Number of instructions handled by decode
system.cpu.decode.IdleCycles                   235007                       # Number of cycles decode is idle
system.cpu.decode.RunCycles                    224796                       # Number of cycles decode is running
system.cpu.decode.SquashCycles                   8407                       # Number of cycles decode is squashing
system.cpu.decode.SquashedInsts                  4080                       # Number of squashed instructions handled by decode
system.cpu.decode.UnblockCycles                 29047                       # Number of cycles decode is unblocking
system.cpu.dtb.accesses                             0                       # DTB accesses
system.cpu.dtb.align_faults                         0                       # Number of TLB faults due to alignment restrictions
system.cpu.dtb.domain_faults                        0                       # Number of TLB faults due to domain restrictions
system.cpu.dtb.flush_entries                        0                       # Number of entries that have been flushed from TLB
system.cpu.dtb.flush_tlb                            0                       # Number of times complete TLB was flushed
system.cpu.dtb.flush_tlb_asid                       0                       # Number of times TLB was flushed by ASID
system.cpu.dtb.flush_tlb_mva                        0                       # Number of times TLB was flushed by MVA
system.cpu.dtb.flush_tlb_mva_asid                   0                       # Number of times TLB was flushed by MVA & ASID
system.cpu.dtb.hits                                 0                       # DTB hits
system.cpu.dtb.inst_accesses                        0                       # ITB inst accesses
system.cpu.dtb.inst_hits                            0                       # ITB inst hits
system.cpu.dtb.inst_misses                          0                       # ITB inst misses
system.cpu.dtb.misses                               0                       # DTB misses
system.cpu.dtb.perms_faults                         0                       # Number of TLB faults due to permissions restrictions
system.cpu.dtb.prefetch_faults                      0                       # Number of TLB faults due to prefetch
system.cpu.dtb.read_accesses                        0                       # DTB read accesses
system.cpu.dtb.read_hits                            0                       # DTB read hits
system.cpu.dtb.read_misses                          0                       # DTB read misses
system.cpu.dtb.stage2_mmu.stage2_tlb.accesses            0                       # DTB accesses
system.cpu.dtb.stage2_mmu.stage2_tlb.align_faults            0                       # Number of TLB faults due to alignment restrictions
system.cpu.dtb.stage2_mmu.stage2_tlb.domain_faults            0                       # Number of TLB faults due to domain restrictions
system.cpu.dtb.stage2_mmu.stage2_tlb.flush_entries            0                       # Number of entries that have been flushed from TLB
system.cpu.dtb.stage2_mmu.stage2_tlb.flush_tlb            0                       # Number of times complete TLB was flushed
system.cpu.dtb.stage2_mmu.stage2_tlb.flush_tlb_asid            0                       # Number of times TLB was flushed by ASID
system.cpu.dtb.stage2_mmu.stage2_tlb.flush_tlb_mva            0                       # Number of times TLB was flushed by MVA
system.cpu.dtb.stage2_mmu.stage2_tlb.flush_tlb_mva_asid            0                       # Number of times TLB was flushed by MVA & ASID
system.cpu.dtb.stage2_mmu.stage2_tlb.hits            0                       # DTB hits
system.cpu.dtb.stage2_mmu.stage2_tlb.inst_accesses            0                       # ITB inst accesses
system.cpu.dtb.stage2_mmu.stage2_tlb.inst_hits            0                       # ITB inst hits
system.cpu.dtb.stage2_mmu.stage2_tlb.inst_misses            0                       # ITB inst misses
system.cpu.dtb.stage2_mmu.stage2_tlb.misses            0                       # DTB misses
system.cpu.dtb.stage2_mmu.stage2_tlb.perms_faults            0                       # Number of TLB faults due to permissions restrictions
system.cpu.dtb.stage2_mmu.stage2_tlb.prefetch_faults            0                       # Number of TLB faults due to prefetch
system.cpu.dtb.stage2_mmu.stage2_tlb.read_accesses            0                       # DTB read accesses
system.cpu.dtb.stage2_mmu.stage2_tlb.read_hits            0                       # DTB read hits
system.cpu.dtb.stage2_mmu.stage2_tlb.read_misses            0                       # DTB read misses
system.cpu.dtb.stage2_mmu.stage2_tlb.walker.walkRequestOrigin_Requested::Data            0                       # Table walker requests started/completed, data/inst
system.cpu.dtb.stage2_mmu.stage2_tlb.walker.walkRequestOrigin_Requested::Inst            0                       # Table walker requests started/completed, data/inst
system.cpu.dtb.stage2_mmu.stage2_tlb.walker.walkRequestOrigin_Requested::total            0                       # Table walker requests started/completed, data/inst
system.cpu.dtb.stage2_mmu.stage2_tlb.walker.walkRequestOrigin_Completed::Data            0                       # Table walker requests started/completed, data/inst
system.cpu.dtb.stage2_mmu.stage2_tlb.walker.walkRequestOrigin_Completed::Inst            0                       # Table walker requests started/completed, data/inst
system.cpu.dtb.stage2_mmu.stage2_tlb.walker.walkRequestOrigin_Completed::total            0                       # Table walker requests started/completed, data/inst
system.cpu.dtb.stage2_mmu.stage2_tlb.walker.walkRequestOrigin::total            0                       # Table walker requests started/completed, data/inst
system.cpu.dtb.stage2_mmu.stage2_tlb.walker.walks            0                       # Table walker walks requested
system.cpu.dtb.stage2_mmu.stage2_tlb.write_accesses            0                       # DTB write accesses
system.cpu.dtb.stage2_mmu.stage2_tlb.write_hits            0                       # DTB write hits
system.cpu.dtb.stage2_mmu.stage2_tlb.write_misses            0                       # DTB write misses
system.cpu.dtb.walker.walkRequestOrigin_Requested::Data            0                       # Table walker requests started/completed, data/inst
system.cpu.dtb.walker.walkRequestOrigin_Requested::Inst            0                       # Table walker requests started/completed, data/inst
system.cpu.dtb.walker.walkRequestOrigin_Requested::total            0                       # Table walker requests started/completed, data/inst
system.cpu.dtb.walker.walkRequestOrigin_Completed::Data            0                       # Table walker requests started/completed, data/inst
system.cpu.dtb.walker.walkRequestOrigin_Completed::Inst            0                       # Table walker requests started/completed, data/inst
system.cpu.dtb.walker.walkRequestOrigin_Completed::total            0                       # Table walker requests started/completed, data/inst
system.cpu.dtb.walker.walkRequestOrigin::total            0                       # Table walker requests started/completed, data/inst
system.cpu.dtb.walker.walks                         0                       # Table walker walks requested
system.cpu.dtb.write_accesses                       0                       # DTB write accesses
system.cpu.dtb.write_hits                           0                       # DTB write hits
system.cpu.dtb.write_misses                         0                       # DTB write misses
system.cpu.fetch.Branches                      302124                       # Number of branches that fetch encountered
system.cpu.fetch.CacheLines                    222644                       # Number of cache lines fetched
system.cpu.fetch.Cycles                        535575                       # Number of cycles fetch has run and was not squashing or blocked
system.cpu.fetch.IcacheSquashes                  4236                       # Number of outstanding Icache misses that were squashed
system.cpu.fetch.IcacheWaitRetryStallCycles           13                       # Number of stall cycles due to full MSHR
system.cpu.fetch.Insts                        1285656                       # Number of instructions fetch has processed
system.cpu.fetch.MiscStallCycles                   84                       # Number of cycles fetch has spent waiting on interrupts, or bad addresses, or out of MSHRs
system.cpu.fetch.SquashCycles                   18932                       # Number of cycles fetch has spent squashing
system.cpu.fetch.branchRate                  0.322138                       # Number of branch fetches per cycle
system.cpu.fetch.icacheStallCycles             303270                       # Number of cycles fetch is stalled on an Icache miss
system.cpu.fetch.predictedBranches             175579                       # Number of branches that fetch has predicted taken
system.cpu.fetch.rate                        1.370825                       # Number of inst fetches per cycle
system.cpu.fetch.rateDist::samples             848408                       # Number of instructions fetched each cycle (Total)
system.cpu.fetch.rateDist::mean              1.696105                       # Number of instructions fetched each cycle (Total)
system.cpu.fetch.rateDist::stdev             2.699079                       # Number of instructions fetched each cycle (Total)
system.cpu.fetch.rateDist::underflows               0      0.00%      0.00% # Number of instructions fetched each cycle (Total)
system.cpu.fetch.rateDist::0                   525019     61.88%     61.88% # Number of instructions fetched each cycle (Total)
system.cpu.fetch.rateDist::1                    42918      5.06%     66.94% # Number of instructions fetched each cycle (Total)
system.cpu.fetch.rateDist::2                    73846      8.70%     75.65% # Number of instructions fetched each cycle (Total)
system.cpu.fetch.rateDist::3                    28765      3.39%     79.04% # Number of instructions fetched each cycle (Total)
system.cpu.fetch.rateDist::4                    26350      3.11%     82.14% # Number of instructions fetched each cycle (Total)
system.cpu.fetch.rateDist::5                    30088      3.55%     85.69% # Number of instructions fetched each cycle (Total)
system.cpu.fetch.rateDist::6                    28164      3.32%     89.01% # Number of instructions fetched each cycle (Total)
system.cpu.fetch.rateDist::7                     8804      1.04%     90.05% # Number of instructions fetched each cycle (Total)
system.cpu.fetch.rateDist::8                    84454      9.95%    100.00% # Number of instructions fetched each cycle (Total)
system.cpu.fetch.rateDist::overflows                0      0.00%    100.00% # Number of instructions fetched each cycle (Total)
system.cpu.fetch.rateDist::min_value                0                       # Number of instructions fetched each cycle (Total)
system.cpu.fetch.rateDist::max_value                8                       # Number of instructions fetched each cycle (Total)
system.cpu.fetch.rateDist::total               848408                       # Number of instructions fetched each cycle (Total)
system.cpu.idleCycles                           89462                       # Total number of cycles that the CPU has spent unscheduled due to idling
system.cpu.iew.branchMispredicts                 9865                       # Number of branch mispredicts detected at execute
system.cpu.iew.exec_branches                   251794                       # Number of branches executed
system.cpu.iew.exec_nop                          1869                       # number of nop insts executed
system.cpu.iew.exec_rate                     1.303190                       # Inst execution rate
system.cpu.iew.exec_refs                       355366                       # number of memory reference insts executed
system.cpu.iew.exec_stores                     146931                       # Number of stores executed
system.cpu.iew.exec_swp                             0                       # number of swp insts executed
system.cpu.iew.iewBlockCycles                   16550                       # Number of cycles IEW is blocking
system.cpu.iew.iewDispLoadInsts                213838                       # Number of dispatched load instructions
system.cpu.iew.iewDispNonSpecInsts                306                       # Number of dispatched non-speculative instructions
system.cpu.iew.iewDispSquashedInsts              2025                       # Number of squashed instructions skipped by dispatch
system.cpu.iew.iewDispStoreInsts               154189                       # Number of dispatched store instructions
system.cpu.iew.iewDispatchedInsts             1267807                       # Number of instructions dispatched to IQ
system.cpu.iew.iewExecLoadInsts                208435                       # Number of load instructions executed
system.cpu.iew.iewExecSquashedInsts              9722                       # Number of squashed instructions skipped in execute
system.cpu.iew.iewExecutedInsts               1222223                       # Number of executed instructions
system.cpu.iew.iewIQFullEvents                     61                       # Number of times the IQ has become full, causing a stall
system.cpu.iew.iewIdleCycles                        0                       # Number of cycles IEW is idle
system.cpu.iew.iewLSQFullEvents                  4213                       # Number of times the LSQ has become full, causing a stall
system.cpu.iew.iewSquashCycles                   8407                       # Number of cycles IEW is squashing
system.cpu.iew.iewUnblockCycles                  4294                       # Number of cycles IEW is unblocking
system.cpu.iew.lsq.thread0.blockedLoads             0                       # Number of blocked loads due to partial load-store forwarding
system.cpu.iew.lsq.thread0.cacheBlocked           100                       # Number of times an access to memory failed due to the cache being blocked
system.cpu.iew.lsq.thread0.forwLoads             2777                       # Number of loads that had data forwarded from stores
system.cpu.iew.lsq.thread0.ignoredResponses           50                       # Number of memory responses ignored because the instruction is squashed
system.cpu.iew.lsq.thread0.invAddrLoads             0                       # Number of loads ignored due to an invalid address
system.cpu.iew.lsq.thread0.invAddrSwpfs             0                       # Number of software prefetches ignored due to an invalid address
system.cpu.iew.lsq.thread0.memOrderViolation           62                       # Number of memory ordering violations
system.cpu.iew.lsq.thread0.rescheduledLoads          626                       # Number of loads that were rescheduled
system.cpu.iew.lsq.thread0.squashedLoads        25707                       # Number of loads squashed
system.cpu.iew.lsq.thread0.squashedStores        19402                       # Number of stores squashed
system.cpu.iew.memOrderViolationEvents             62                       # Number of memory order violations
system.cpu.iew.predictedNotTakenIncorrect         6197                       # Number of branches that were predicted not taken incorrectly
system.cpu.iew.predictedTakenIncorrect           3668                       # Number of branches that were predicted taken incorrectly
system.cpu.iew.wb_consumers                   1106565                       # num instructions consuming a value
system.cpu.iew.wb_count                       1213951                       # cumulative count of insts written-back
system.cpu.iew.wb_fanout                     0.582876                       # average fanout of values written-back
system.cpu.iew.wb_producers                    644990                       # num instructions producing a value
system.cpu.iew.wb_rate                       1.294370                       # insts written-back per cycle
system.cpu.iew.wb_sent                        1218084                       # cumulative count of insts sent to commit
system.cpu.int_regfile_reads                  1420776                       # number of integer regfile reads
system.cpu.int_regfile_writes                  874576                       # number of integer regfile writes
system.cpu.ipc                               1.066246                       # IPC: Instructions Per Cycle
system.cpu.ipc_total                         1.066246                       # IPC: Total IPC of All Threads
system.cpu.iq.FU_type_0::No_OpClass                 9      0.00%      0.00% # Type of FU issued
system.cpu.iq.FU_type_0::IntAlu                871958     70.78%     70.78% # Type of FU issued
system.cpu.iq.FU_type_0::IntMult                  480      0.04%     70.82% # Type of FU issued
system.cpu.iq.FU_type_0::IntDiv                    14      0.00%     70.82% # Type of FU issued
system.cpu.iq.FU_type_0::FloatAdd                   1      0.00%     70.82% # Type of FU issued
system.cpu.iq.FU_type_0::FloatCmp                  20      0.00%     70.82% # Type of FU issued
system.cpu.iq.FU_type_0::FloatCvt                   0      0.00%     70.82% # Type of FU issued
system.cpu.iq.FU_type_0::FloatMult                  0      0.00%     70.82% # Type of FU issued
system.cpu.iq.FU_type_0::FloatMultAcc               0      0.00%     70.82% # Type of FU issued
system.cpu.iq.FU_type_0::FloatDiv                   0      0.00%     70.82% # Type of FU issued
system.cpu.iq.FU_type_0::FloatMisc                 58      0.00%     70.83% # Type of FU issued
system.cpu.iq.FU_type_0::FloatSqrt                  0      0.00%     70.83% # Type of FU issued
system.cpu.iq.FU_type_0::SimdAdd                   27      0.00%     70.83% # Type of FU issued
system.cpu.iq.FU_type_0::SimdAddAcc                 0      0.00%     70.83% # Type of FU issued
system.cpu.iq.FU_type_0::SimdAlu                   18      0.00%     70.83% # Type of FU issued
system.cpu.iq.FU_type_0::SimdCmp                   20      0.00%     70.83% # Type of FU issued
system.cpu.iq.FU_type_0::SimdCvt                    0      0.00%     70.83% # Type of FU issued
system.cpu.iq.FU_type_0::SimdMisc                  68      0.01%     70.84% # Type of FU issued
system.cpu.iq.FU_type_0::SimdMult                   0      0.00%     70.84% # Type of FU issued
system.cpu.iq.FU_type_0::SimdMultAcc                0      0.00%     70.84% # Type of FU issued
system.cpu.iq.FU_type_0::SimdShift                  0      0.00%     70.84% # Type of FU issued
system.cpu.iq.FU_type_0::SimdShiftAcc               0      0.00%     70.84% # Type of FU issued
system.cpu.iq.FU_type_0::SimdDiv                    0      0.00%     70.84% # Type of FU issued
system.cpu.iq.FU_type_0::SimdSqrt                   0      0.00%     70.84% # Type of FU issued
system.cpu.iq.FU_type_0::SimdFloatAdd               0      0.00%     70.84% # Type of FU issued
system.cpu.iq.FU_type_0::SimdFloatAlu               0      0.00%     70.84% # Type of FU issued
system.cpu.iq.FU_type_0::SimdFloatCmp               0      0.00%     70.84% # Type of FU issued
system.cpu.iq.FU_type_0::SimdFloatCvt               0      0.00%     70.84% # Type of FU issued
system.cpu.iq.FU_type_0::SimdFloatDiv               0      0.00%     70.84% # Type of FU issued
system.cpu.iq.FU_type_0::SimdFloatMisc              0      0.00%     70.84% # Type of FU issued
system.cpu.iq.FU_type_0::SimdFloatMult              0      0.00%     70.84% # Type of FU issued
system.cpu.iq.FU_type_0::SimdFloatMultAcc            0      0.00%     70.84% # Type of FU issued
system.cpu.iq.FU_type_0::SimdFloatSqrt              0      0.00%     70.84% # Type of FU issued
system.cpu.iq.FU_type_0::SimdReduceAdd              0      0.00%     70.84% # Type of FU issued
system.cpu.iq.FU_type_0::SimdReduceAlu              0      0.00%     70.84% # Type of FU issued
system.cpu.iq.FU_type_0::SimdReduceCmp              0      0.00%     70.84% # Type of FU issued
system.cpu.iq.FU_type_0::SimdFloatReduceAdd            0      0.00%     70.84% # Type of FU issued
system.cpu.iq.FU_type_0::SimdFloatReduceCmp            0      0.00%     70.84% # Type of FU issued
system.cpu.iq.FU_type_0::SimdAes                    0      0.00%     70.84% # Type of FU issued
system.cpu.iq.FU_type_0::SimdAesMix                 0      0.00%     70.84% # Type of FU issued
system.cpu.iq.FU_type_0::SimdSha1Hash               0      0.00%     70.84% # Type of FU issued
system.cpu.iq.FU_type_0::SimdSha1Hash2              0      0.00%     70.84% # Type of FU issued
system.cpu.iq.FU_type_0::SimdSha256Hash             0      0.00%     70.84% # Type of FU issued
system.cpu.iq.FU_type_0::SimdSha256Hash2            0      0.00%     70.84% # Type of FU issued
system.cpu.iq.FU_type_0::SimdShaSigma2              0      0.00%     70.84% # Type of FU issued
system.cpu.iq.FU_type_0::SimdShaSigma3              0      0.00%     70.84% # Type of FU issued
system.cpu.iq.FU_type_0::SimdPredAlu                0      0.00%     70.84% # Type of FU issued
system.cpu.iq.FU_type_0::MemRead               210407     17.08%     87.92% # Type of FU issued
system.cpu.iq.FU_type_0::MemWrite              148868     12.08%    100.00% # Type of FU issued
system.cpu.iq.FU_type_0::FloatMemRead               0      0.00%    100.00% # Type of FU issued
system.cpu.iq.FU_type_0::FloatMemWrite              0      0.00%    100.00% # Type of FU issued
system.cpu.iq.FU_type_0::IprAccess                  0      0.00%    100.00% # Type of FU issued
system.cpu.iq.FU_type_0::InstPrefetch               0      0.00%    100.00% # Type of FU issued
system.cpu.iq.FU_type_0::total                1231948                       # Type of FU issued
system.cpu.iq.fp_alu_accesses                       0                       # Number of floating point alu accesses
system.cpu.iq.fp_inst_queue_reads                   0                       # Number of floating instruction queue reads
system.cpu.iq.fp_inst_queue_wakeup_accesses            0                       # Number of floating instruction queue wakeup accesses
system.cpu.iq.fp_inst_queue_writes                  0                       # Number of floating instruction queue writes
system.cpu.iq.fu_busy_cnt                       14526                       # FU busy when requested
system.cpu.iq.fu_busy_rate                   0.011791                       # FU busy rate (busy events/executed inst)
system.cpu.iq.fu_full::No_OpClass                   0      0.00%      0.00% # attempts to use FU when none available
system.cpu.iq.fu_full::IntAlu                    4852     33.40%     33.40% # attempts to use FU when none available
system.cpu.iq.fu_full::IntMult                      0      0.00%     33.40% # attempts to use FU when none available
system.cpu.iq.fu_full::IntDiv                       0      0.00%     33.40% # attempts to use FU when none available
system.cpu.iq.fu_full::FloatAdd                     0      0.00%     33.40% # attempts to use FU when none available
system.cpu.iq.fu_full::FloatCmp                     0      0.00%     33.40% # attempts to use FU when none available
system.cpu.iq.fu_full::FloatCvt                     0      0.00%     33.40% # attempts to use FU when none available
system.cpu.iq.fu_full::FloatMult                    0      0.00%     33.40% # attempts to use FU when none available
system.cpu.iq.fu_full::FloatMultAcc                 0      0.00%     33.40% # attempts to use FU when none available
system.cpu.iq.fu_full::FloatDiv                     0      0.00%     33.40% # attempts to use FU when none available
system.cpu.iq.fu_full::FloatMisc                    0      0.00%     33.40% # attempts to use FU when none available
system.cpu.iq.fu_full::FloatSqrt                    0      0.00%     33.40% # attempts to use FU when none available
system.cpu.iq.fu_full::SimdAdd                      0      0.00%     33.40% # attempts to use FU when none available
system.cpu.iq.fu_full::SimdAddAcc                   0      0.00%     33.40% # attempts to use FU when none available
system.cpu.iq.fu_full::SimdAlu                      3      0.02%     33.42% # attempts to use FU when none available
system.cpu.iq.fu_full::SimdCmp                      2      0.01%     33.44% # attempts to use FU when none available
system.cpu.iq.fu_full::SimdCvt                      0      0.00%     33.44% # attempts to use FU when none available
system.cpu.iq.fu_full::SimdMisc                     0      0.00%     33.44% # attempts to use FU when none available
system.cpu.iq.fu_full::SimdMult                     0      0.00%     33.44% # attempts to use FU when none available
system.cpu.iq.fu_full::SimdMultAcc                  0      0.00%     33.44% # attempts to use FU when none available
system.cpu.iq.fu_full::SimdShift                    0      0.00%     33.44% # attempts to use FU when none available
system.cpu.iq.fu_full::SimdShiftAcc                 0      0.00%     33.44% # attempts to use FU when none available
system.cpu.iq.fu_full::SimdDiv                      0      0.00%     33.44% # attempts to use FU when none available
system.cpu.iq.fu_full::SimdSqrt                     0      0.00%     33.44% # attempts to use FU when none available
system.cpu.iq.fu_full::SimdFloatAdd                 0      0.00%     33.44% # attempts to use FU when none available
system.cpu.iq.fu_full::SimdFloatAlu                 0      0.00%     33.44% # attempts to use FU when none available
system.cpu.iq.fu_full::SimdFloatCmp                 0      0.00%     33.44% # attempts to use FU when none available
system.cpu.iq.fu_full::SimdFloatCvt                 0      0.00%     33.44% # attempts to use FU when none available
system.cpu.iq.fu_full::SimdFloatDiv                 0      0.00%     33.44% # attempts to use FU when none available
system.cpu.iq.fu_full::SimdFloatMisc                0      0.00%     33.44% # attempts to use FU when none available
system.cpu.iq.fu_full::SimdFloatMult                0      0.00%     33.44% # attempts to use FU when none available
system.cpu.iq.fu_full::SimdFloatMultAcc             0      0.00%     33.44% # attempts to use FU when none available
system.cpu.iq.fu_full::SimdFloatSqrt                0      0.00%     33.44% # attempts to use FU when none available
system.cpu.iq.fu_full::SimdReduceAdd                0      0.00%     33.44% # attempts to use FU when none available
system.cpu.iq.fu_full::SimdReduceAlu                0      0.00%     33.44% # attempts to use FU when none available
system.cpu.iq.fu_full::SimdReduceCmp                0      0.00%     33.44% # attempts to use FU when none available
system.cpu.iq.fu_full::SimdFloatReduceAdd            0      0.00%     33.44% # attempts to use FU when none available
system.cpu.iq.fu_full::SimdFloatReduceCmp            0      0.00%     33.44% # attempts to use FU when none available
system.cpu.iq.fu_full::SimdAes                      0      0.00%     33.44% # attempts to use FU when none available
system.cpu.iq.fu_full::SimdAesMix                   0      0.00%     33.44% # attempts to use FU when none available
system.cpu.iq.fu_full::SimdSha1Hash                 0      0.00%     33.44% # attempts to use FU when none available
system.cpu.iq.fu_full::SimdSha1Hash2                0      0.00%     33.44% # attempts to use FU when none available
system.cpu.iq.fu_full::SimdSha256Hash               0      0.00%     33.44% # attempts to use FU when none available
system.cpu.iq.fu_full::SimdSha256Hash2              0      0.00%     33.44% # attempts to use FU when none available
system.cpu.iq.fu_full::SimdShaSigma2                0      0.00%     33.44% # attempts to use FU when none available
system.cpu.iq.fu_full::SimdShaSigma3                0      0.00%     33.44% # attempts to use FU when none available
system.cpu.iq.fu_full::SimdPredAlu                  0      0.00%     33.44% # attempts to use FU when none available
system.cpu.iq.fu_full::MemRead                   4991     34.36%     67.80% # attempts to use FU when none available
system.cpu.iq.fu_full::MemWrite                  4678     32.20%    100.00% # attempts to use FU when none available
system.cpu.iq.fu_full::FloatMemRead                 0      0.00%    100.00% # attempts to use FU when none available
system.cpu.iq.fu_full::FloatMemWrite                0      0.00%    100.00% # attempts to use FU when none available
system.cpu.iq.fu_full::IprAccess                    0      0.00%    100.00% # attempts to use FU when none available
system.cpu.iq.fu_full::InstPrefetch                 0      0.00%    100.00% # attempts to use FU when none available
system.cpu.iq.int_alu_accesses                1244743                       # Number of integer alu accesses
system.cpu.iq.int_inst_queue_reads            3323953                       # Number of integer instruction queue reads
system.cpu.iq.int_inst_queue_wakeup_accesses      1212381                       # Number of integer instruction queue wakeup accesses
system.cpu.iq.int_inst_queue_writes           1414639                       # Number of integer instruction queue writes
system.cpu.iq.iqInstsAdded                    1265632                       # Number of instructions added to the IQ (excludes non-spec)
system.cpu.iq.iqInstsIssued                   1231948                       # Number of instructions issued
system.cpu.iq.iqNonSpecInstsAdded                 306                       # Number of non-speculative instructions added to the IQ
system.cpu.iq.iqSquashedInstsExamined          150480                       # Number of squashed instructions iterated over during squash; mainly for profiling
system.cpu.iq.iqSquashedInstsIssued               495                       # Number of squashed instructions issued
system.cpu.iq.iqSquashedNonSpecRemoved             61                       # Number of squashed non-spec instructions that were removed
system.cpu.iq.iqSquashedOperandsExamined        78863                       # Number of squashed operands that are examined and possibly removed from graph
system.cpu.iq.issued_per_cycle::samples        848408                       # Number of insts issued each cycle
system.cpu.iq.issued_per_cycle::mean         1.452070                       # Number of insts issued each cycle
system.cpu.iq.issued_per_cycle::stdev        1.887817                       # Number of insts issued each cycle
system.cpu.iq.issued_per_cycle::underflows            0      0.00%      0.00% # Number of insts issued each cycle
system.cpu.iq.issued_per_cycle::0              393727     46.41%     46.41% # Number of insts issued each cycle
system.cpu.iq.issued_per_cycle::1              150412     17.73%     64.14% # Number of insts issued each cycle
system.cpu.iq.issued_per_cycle::2              105051     12.38%     76.52% # Number of insts issued each cycle
system.cpu.iq.issued_per_cycle::3               72755      8.58%     85.09% # Number of insts issued each cycle
system.cpu.iq.issued_per_cycle::4               52873      6.23%     91.33% # Number of insts issued each cycle
system.cpu.iq.issued_per_cycle::5               32913      3.88%     95.21% # Number of insts issued each cycle
system.cpu.iq.issued_per_cycle::6               19751      2.33%     97.53% # Number of insts issued each cycle
system.cpu.iq.issued_per_cycle::7                8802      1.04%     98.57% # Number of insts issued each cycle
system.cpu.iq.issued_per_cycle::8               12124      1.43%    100.00% # Number of insts issued each cycle
system.cpu.iq.issued_per_cycle::overflows            0      0.00%    100.00% # Number of insts issued each cycle
system.cpu.iq.issued_per_cycle::min_value            0                       # Number of insts issued each cycle
system.cpu.iq.issued_per_cycle::max_value            8                       # Number of insts issued each cycle
system.cpu.iq.issued_per_cycle::total          848408                       # Number of insts issued each cycle
system.cpu.iq.rate                           1.313559                       # Inst issue rate
system.cpu.iq.vec_alu_accesses                   1722                       # Number of vector alu accesses
system.cpu.iq.vec_inst_queue_reads               3369                       # Number of vector instruction queue reads
system.cpu.iq.vec_inst_queue_wakeup_accesses         1570                       # Number of vector instruction queue wakeup accesses
system.cpu.iq.vec_inst_queue_writes              1837                       # Number of vector instruction queue writes
system.cpu.itb.accesses                             0                       # DTB accesses
system.cpu.itb.align_faults                         0                       # Number of TLB faults due to alignment restrictions
system.cpu.itb.domain_faults                        0                       # Number of TLB faults due to domain restrictions
system.cpu.itb.flush_entries                        0                       # Number of entries that have been flushed from TLB
system.cpu.itb.flush_tlb                            0                       # Number of times complete TLB was flushed
system.cpu.itb.flush_tlb_asid                       0                       # Number of times TLB was flushed by ASID
system.cpu.itb.flush_tlb_mva                        0                       # Number of times TLB was flushed by MVA
system.cpu.itb.flush_tlb_mva_asid                   0                       # Number of times TLB was flushed by MVA & ASID
system.cpu.itb.hits                                 0                       # DTB hits
system.cpu.itb.inst_accesses                        0                       # ITB inst accesses
system.cpu.itb.inst_hits                            0                       # ITB inst hits
system.cpu.itb.inst_misses                          0                       # ITB inst misses
system.cpu.itb.misses                               0                       # DTB misses
system.cpu.itb.perms_faults                         0                       # Number of TLB faults due to permissions restrictions
system.cpu.itb.prefetch_faults                      0                       # Number of TLB faults due to prefetch
system.cpu.itb.read_accesses                        0                       # DTB read accesses
system.cpu.itb.read_hits                            0                       # DTB read hits
system.cpu.itb.read_misses                          0                       # DTB read misses
system.cpu.itb.stage2_mmu.stage2_tlb.accesses            0                       # DTB accesses
system.cpu.itb.stage2_mmu.stage2_tlb.align_faults            0                       # Number of TLB faults due to alignment restrictions
system.cpu.itb.stage2_mmu.stage2_tlb.domain_faults            0                       # Number of TLB faults due to domain restrictions
system.cpu.itb.stage2_mmu.stage2_tlb.flush_entries            0                       # Number of entries that have been flushed from TLB
system.cpu.itb.stage2_mmu.stage2_tlb.flush_tlb            0                       # Number of times complete TLB was flushed
system.cpu.itb.stage2_mmu.stage2_tlb.flush_tlb_asid            0                       # Number of times TLB was flushed by ASID
system.cpu.itb.stage2_mmu.stage2_tlb.flush_tlb_mva            0                       # Number of times TLB was flushed by MVA
system.cpu.itb.stage2_mmu.stage2_tlb.flush_tlb_mva_asid            0                       # Number of times TLB was flushed by MVA & ASID
system.cpu.itb.stage2_mmu.stage2_tlb.hits            0                       # DTB hits
system.cpu.itb.stage2_mmu.stage2_tlb.inst_accesses            0                       # ITB inst accesses
system.cpu.itb.stage2_mmu.stage2_tlb.inst_hits            0                       # ITB inst hits
system.cpu.itb.stage2_mmu.stage2_tlb.inst_misses            0                       # ITB inst misses
system.cpu.itb.stage2_mmu.stage2_tlb.misses            0                       # DTB misses
system.cpu.itb.stage2_mmu.stage2_tlb.perms_faults            0                       # Number of TLB faults due to permissions restrictions
system.cpu.itb.stage2_mmu.stage2_tlb.prefetch_faults            0                       # Number of TLB faults due to prefetch
system.cpu.itb.stage2_mmu.stage2_tlb.read_accesses            0                       # DTB read accesses
system.cpu.itb.stage2_mmu.stage2_tlb.read_hits            0                       # DTB read hits
system.cpu.itb.stage2_mmu.stage2_tlb.read_misses            0                       # DTB read misses
system.cpu.itb.stage2_mmu.stage2_tlb.walker.walkRequestOrigin_Requested::Data            0                       # Table walker requests started/completed, data/inst
system.cpu.itb.stage2_mmu.stage2_tlb.walker.walkRequestOrigin_Requested::Inst            0                       # Table walker requests started/completed, data/inst
system.cpu.itb.stage2_mmu.stage2_tlb.walker.walkRequestOrigin_Requested::total            0                       # Table walker requests started/completed, data/inst
system.cpu.itb.stage2_mmu.stage2_tlb.walker.walkRequestOrigin_Completed::Data            0                       # Table walker requests started/completed, data/inst
system.cpu.itb.stage2_mmu.stage2_tlb.walker.walkRequestOrigin_Completed::Inst            0                       # Table walker requests started/completed, data/inst
system.cpu.itb.stage2_mmu.stage2_tlb.walker.walkRequestOrigin_Completed::total            0                       # Table walker requests started/completed, data/inst
system.cpu.itb.stage2_mmu.stage2_tlb.walker.walkRequestOrigin::total            0                       # Table walker requests started/completed, data/inst
system.cpu.itb.stage2_mmu.stage2_tlb.walker.walks            0                       # Table walker walks requested
system.cpu.itb.stage2_mmu.stage2_tlb.write_accesses            0                       # DTB write accesses
system.cpu.itb.stage2_mmu.stage2_tlb.write_hits            0                       # DTB write hits
system.cpu.itb.stage2_mmu.stage2_tlb.write_misses            0                       # DTB write misses
system.cpu.itb.walker.walkRequestOrigin_Requested::Data            0                       # Table walker requests started/completed, data/inst
system.cpu.itb.walker.walkRequestOrigin_Requested::Inst            0                       # Table walker requests started/completed, data/inst
system.cpu.itb.walker.walkRequestOrigin_Requested::total            0                       # Table walker requests started/completed, data/inst
system.cpu.itb.walker.walkRequestOrigin_Completed::Data            0                       # Table walker requests started/completed, data/inst
system.cpu.itb.walker.walkRequestOrigin_Completed::Inst            0                       # Table walker requests started/completed, data/inst
system.cpu.itb.walker.walkRequestOrigin_Completed::total            0                       # Table walker requests started/completed, data/inst
system.cpu.itb.walker.walkRequestOrigin::total            0                       # Table walker requests started/completed, data/inst
system.cpu.itb.walker.walks                         0                       # Table walker walks requested
system.cpu.itb.write_accesses                       0                       # DTB write accesses
system.cpu.itb.write_hits                           0                       # DTB write hits
system.cpu.itb.write_misses                         0                       # DTB write misses
system.cpu.memDep0.conflictingLoads              5612                       # Number of conflicting loads.
system.cpu.memDep0.conflictingStores             9134                       # Number of conflicting stores.
system.cpu.memDep0.insertedLoads               213838                       # Number of loads inserted to the mem dependence unit.
system.cpu.memDep0.insertedStores              154189                       # Number of stores inserted to the mem dependence unit.
system.cpu.misc_regfile_reads                 1000136                       # number of misc regfile reads
system.cpu.misc_regfile_writes                    957                       # number of misc regfile writes
system.cpu.numCycles                           937870                       # number of cpu cycles simulated
system.cpu.numWorkItemsCompleted                    0                       # number of work items this cpu completed
system.cpu.numWorkItemsStarted                      0                       # number of work items this cpu started
system.cpu.rename.BlockCycles                   21506                       # Number of cycles rename is blocking
system.cpu.rename.CommittedMaps               1121395                       # Number of HB maps that are committed
system.cpu.rename.IQFullEvents                    168                       # Number of times rename has blocked due to IQ full
system.cpu.rename.IdleCycles                   249451                       # Number of cycles rename is idle
system.cpu.rename.LQFullEvents                    444                       # Number of times rename has blocked due to LQ full
system.cpu.rename.ROBFullEvents                    39                       # Number of times rename has blocked due to ROB full
system.cpu.rename.RenameLookups               1970254                       # Number of register rename lookups that rename has made
system.cpu.rename.RenamedInsts                1295032                       # Number of instructions processed by rename
system.cpu.rename.RenamedOperands             1298125                       # Number of destination operands rename has renamed
system.cpu.rename.RunCycles                    239899                       # Number of cycles rename is running
system.cpu.rename.SQFullEvents                   5945                       # Number of times rename has blocked due to SQ full
system.cpu.rename.SquashCycles                   8407                       # Number of cycles rename is squashing
system.cpu.rename.UnblockCycles                 30468                       # Number of cycles rename is unblocking
system.cpu.rename.UndoneMaps                   176678                       # Number of HB maps that are undone due to squashing
system.cpu.rename.int_rename_lookups          1507674                       # Number of integer rename lookups
system.cpu.rename.serializeStallCycles         298677                       # count of cycles rename stalled for serializing inst
system.cpu.rename.serializingInsts              18843                       # count of serializing insts renamed
system.cpu.rename.skidInsts                    135698                       # count of insts added to the skid buffer
system.cpu.rename.tempSerializingInsts            311                       # count of temporary serializing insts renamed
system.cpu.rename.vec_rename_lookups             1703                       # Number of vector rename lookups
system.cpu.rob.rob_reads                      2031157                       # The number of ROB reads
system.cpu.rob.rob_writes                     2557380                       # The number of ROB writes
system.cpu.timesIdled                            2383                       # Number of times that the entire CPU went into an idle state and unscheduled itself
system.cpu.vec_regfile_reads                     1549                       # number of vector regfile reads
system.cpu.vec_regfile_writes                     238                       # number of vector regfile writes
system.cpu.workload.numSyscalls                    10                       # Number of system calls
system.membus.snoop_filter.hit_multi_requests            0                       # Number of requests hitting in the snoop filter with multiple (>1) holders of the requested data.
system.membus.snoop_filter.hit_multi_snoops            0                       # Number of snoops hitting in the snoop filter with multiple (>1) holders of the requested data.
system.membus.snoop_filter.hit_single_requests            0                       # Number of requests hitting in the snoop filter with a single holder of the requested data.
system.membus.snoop_filter.hit_single_snoops            0                       # Number of snoops hitting in the snoop filter with a single holder of the requested data.
system.membus.snoop_filter.tot_requests          2163                       # Total number of requests made to the snoop filter.
system.membus.snoop_filter.tot_snoops               0                       # Total number of snoops made to the snoop filter.
system.tol2bus.snoop_filter.hit_multi_requests            1                       # Number of requests hitting in the snoop filter with multiple (>1) holders of the requested data.
system.tol2bus.snoop_filter.hit_multi_snoops            0                       # Number of snoops hitting in the snoop filter with multiple (>1) holders of the requested data.
system.tol2bus.snoop_filter.hit_single_requests         4766                       # Number of requests hitting in the snoop filter with a single holder of the requested data.
system.tol2bus.snoop_filter.hit_single_snoops            0                       # Number of snoops hitting in the snoop filter with a single holder of the requested data.
system.tol2bus.snoop_filter.tot_requests        10513                       # Total number of requests made to the snoop filter.
system.tol2bus.snoop_filter.tot_snoops              0                       # Total number of snoops made to the snoop filter.
system.membus.trans_dist::ReadResp               1294                       # Transaction distribution
system.membus.trans_dist::ReadExReq               793                       # Transaction distribution
system.membus.trans_dist::ReadExResp              793                       # Transaction distribution
system.membus.trans_dist::ReadSharedReq          1294                       # Transaction distribution
system.membus.trans_dist::InvalidateReq            76                       # Transaction distribution
system.membus.pkt_count_system.l2.mem_side::system.mem_ctrls.port         4250                       # Packet count per connected master and slave (bytes)
system.membus.pkt_count::total                   4250                       # Packet count per connected master and slave (bytes)
system.membus.pkt_size_system.l2.mem_side::system.mem_ctrls.port       133568                       # Cumulative packet size per connected master and slave (bytes)
system.membus.pkt_size::total                  133568                       # Cumulative packet size per connected master and slave (bytes)
system.membus.snoops                                0                       # Total snoops (count)
system.membus.snoopTraffic                          0                       # Total snoop traffic (bytes)
system.membus.snoop_fanout::samples              2163                       # Request fanout histogram
system.membus.snoop_fanout::mean                    0                       # Request fanout histogram
system.membus.snoop_fanout::stdev                   0                       # Request fanout histogram
system.membus.snoop_fanout::underflows              0      0.00%      0.00% # Request fanout histogram
system.membus.snoop_fanout::0                    2163    100.00%    100.00% # Request fanout histogram
system.membus.snoop_fanout::1                       0      0.00%    100.00% # Request fanout histogram
system.membus.snoop_fanout::overflows               0      0.00%    100.00% # Request fanout histogram
system.membus.snoop_fanout::min_value               0                       # Request fanout histogram
system.membus.snoop_fanout::max_value               0                       # Request fanout histogram
system.membus.snoop_fanout::total                2163                       # Request fanout histogram
system.membus.reqLayer0.occupancy             2694500                       # Layer occupancy (ticks)
system.membus.reqLayer0.utilization               0.6                       # Layer utilization (%)
system.membus.respLayer1.occupancy           11077500                       # Layer occupancy (ticks)
system.membus.respLayer1.utilization              2.4                       # Layer utilization (%)
system.membus.power_state.pwrStateResidencyTicks::UNDEFINED    468934500                       # Cumulative time (in ticks) in various power states
system.tol2bus.trans_dist::ReadResp              4801                       # Transaction distribution
system.tol2bus.trans_dist::WritebackDirty          781                       # Transaction distribution
system.tol2bus.trans_dist::WritebackClean         3742                       # Transaction distribution
system.tol2bus.trans_dist::CleanEvict             243                       # Transaction distribution
system.tol2bus.trans_dist::ReadExReq              868                       # Transaction distribution
system.tol2bus.trans_dist::ReadExResp             868                       # Transaction distribution
system.tol2bus.trans_dist::ReadCleanReq          4213                       # Transaction distribution
system.tol2bus.trans_dist::ReadSharedReq          588                       # Transaction distribution
system.tol2bus.trans_dist::InvalidateReq           78                       # Transaction distribution
system.tol2bus.trans_dist::InvalidateResp           78                       # Transaction distribution
system.tol2bus.pkt_count_system.cpu.icache.mem_side::system.l2.cpu_side        12168                       # Packet count per connected master and slave (bytes)
system.tol2bus.pkt_count_system.cpu.dcache.mem_side::system.l2.cpu_side         4092                       # Packet count per connected master and slave (bytes)
system.tol2bus.pkt_count::total                 16260                       # Packet count per connected master and slave (bytes)
system.tol2bus.pkt_size_system.cpu.icache.mem_side::system.l2.cpu_side       509120                       # Cumulative packet size per connected master and slave (bytes)
system.tol2bus.pkt_size_system.cpu.dcache.mem_side::system.l2.cpu_side       143168                       # Cumulative packet size per connected master and slave (bytes)
system.tol2bus.pkt_size::total                 652288                       # Cumulative packet size per connected master and slave (bytes)
system.tol2bus.snoops                               0                       # Total snoops (count)
system.tol2bus.snoopTraffic                         0                       # Total snoop traffic (bytes)
system.tol2bus.snoop_fanout::samples             5747                       # Request fanout histogram
system.tol2bus.snoop_fanout::mean            0.000174                       # Request fanout histogram
system.tol2bus.snoop_fanout::stdev           0.013191                       # Request fanout histogram
system.tol2bus.snoop_fanout::underflows             0      0.00%      0.00% # Request fanout histogram
system.tol2bus.snoop_fanout::0                   5746     99.98%     99.98% # Request fanout histogram
system.tol2bus.snoop_fanout::1                      1      0.02%    100.00% # Request fanout histogram
system.tol2bus.snoop_fanout::2                      0      0.00%    100.00% # Request fanout histogram
system.tol2bus.snoop_fanout::overflows              0      0.00%    100.00% # Request fanout histogram
system.tol2bus.snoop_fanout::min_value              0                       # Request fanout histogram
system.tol2bus.snoop_fanout::max_value              1                       # Request fanout histogram
system.tol2bus.snoop_fanout::total               5747                       # Request fanout histogram
system.tol2bus.reqLayer0.occupancy            9779500                       # Layer occupancy (ticks)
system.tol2bus.reqLayer0.utilization              2.1                       # Layer utilization (%)
system.tol2bus.respLayer1.occupancy           2223499                       # Layer occupancy (ticks)
system.tol2bus.respLayer1.utilization             0.5                       # Layer utilization (%)
system.tol2bus.respLayer0.occupancy           6319500                       # Layer occupancy (ticks)
system.tol2bus.respLayer0.utilization             1.3                       # Layer utilization (%)
system.tol2bus.power_state.pwrStateResidencyTicks::UNDEFINED    468934500                       # Cumulative time (in ticks) in various power states
system.voltage_domain.voltage                       1                       # Voltage in Volts
system.clk_domain.clock                          1000                       # Clock period in ticks
system.l2.demand_hits::.cpu.inst                 3199                       # number of demand (read+write) hits
system.l2.demand_hits::.cpu.data                  383                       # number of demand (read+write) hits
system.l2.demand_hits::total                     3582                       # number of demand (read+write) hits
system.l2.overall_hits::.cpu.inst                3199                       # number of overall hits
system.l2.overall_hits::.cpu.data                 383                       # number of overall hits
system.l2.overall_hits::total                    3582                       # number of overall hits
system.l2.demand_misses::.cpu.inst               1014                       # number of demand (read+write) misses
system.l2.demand_misses::.cpu.data               1073                       # number of demand (read+write) misses
system.l2.demand_misses::total                   2087                       # number of demand (read+write) misses
system.l2.overall_misses::.cpu.inst              1014                       # number of overall misses
system.l2.overall_misses::.cpu.data              1073                       # number of overall misses
system.l2.overall_misses::total                  2087                       # number of overall misses
system.l2.demand_miss_latency::.cpu.inst     79654500                       # number of demand (read+write) miss cycles
system.l2.demand_miss_latency::.cpu.data     85698500                       # number of demand (read+write) miss cycles
system.l2.demand_miss_latency::total        165353000                       # number of demand (read+write) miss cycles
system.l2.overall_miss_latency::.cpu.inst     79654500                       # number of overall miss cycles
system.l2.overall_miss_latency::.cpu.data     85698500                       # number of overall miss cycles
system.l2.overall_miss_latency::total       165353000                       # number of overall miss cycles
system.l2.demand_accesses::.cpu.inst             4213                       # number of demand (read+write) accesses
system.l2.demand_accesses::.cpu.data             1456                       # number of demand (read+write) accesses
system.l2.demand_accesses::total                 5669                       # number of demand (read+write) accesses
system.l2.overall_accesses::.cpu.inst            4213                       # number of overall (read+write) accesses
system.l2.overall_accesses::.cpu.data            1456                       # number of overall (read+write) accesses
system.l2.overall_accesses::total                5669                       # number of overall (read+write) accesses
system.l2.demand_miss_rate::.cpu.inst        0.240684                       # miss rate for demand accesses
system.l2.demand_miss_rate::.cpu.data        0.736951                       # miss rate for demand accesses
system.l2.demand_miss_rate::total            0.368143                       # miss rate for demand accesses
system.l2.overall_miss_rate::.cpu.inst       0.240684                       # miss rate for overall accesses
system.l2.overall_miss_rate::.cpu.data       0.736951                       # miss rate for overall accesses
[...]
system.cpu.dcache.overall_miss_latency::.cpu.data    288853920                       # number of overall miss cycles
system.cpu.dcache.overall_miss_latency::total    288853920                       # number of overall miss cycles
system.cpu.dcache.demand_accesses::.cpu.data       338662                       # number of demand (read+write) accesses
system.cpu.dcache.demand_accesses::total       338662                       # number of demand (read+write) accesses
system.cpu.dcache.overall_accesses::.cpu.data       339182                       # number of overall (read+write) accesses
system.cpu.dcache.overall_accesses::total       339182                       # number of overall (read+write) accesses
system.cpu.dcache.demand_miss_rate::.cpu.data     0.013565                       # miss rate for demand accesses
system.cpu.dcache.demand_miss_rate::total     0.013565                       # miss rate for demand accesses
system.cpu.dcache.overall_miss_rate::.cpu.data     0.013550                       # miss rate for overall accesses
system.cpu.dcache.overall_miss_rate::total     0.013550                       # miss rate for overall accesses
system.cpu.dcache.demand_avg_miss_latency::.cpu.data 62876.343056                       # average overall miss latency
system.cpu.dcache.demand_avg_miss_latency::total 62876.343056                       # average overall miss latency
system.cpu.dcache.overall_avg_miss_latency::.cpu.data 62848.981723                       # average overall miss latency
system.cpu.dcache.overall_avg_miss_latency::total 62848.981723                       # average overall miss latency
system.cpu.dcache.blocked_cycles::no_mshrs         3622                       # number of cycles access was blocked
system.cpu.dcache.blocked_cycles::no_targets            0                       # number of cycles access was blocked
system.cpu.dcache.blocked::no_mshrs               112                       # number of cycles access was blocked
system.cpu.dcache.blocked::no_targets               0                       # number of cycles access was blocked
system.cpu.dcache.avg_blocked_cycles::no_mshrs    32.339286                       # average number of cycles each access was blocked
system.cpu.dcache.avg_blocked_cycles::no_targets          nan                       # average number of cycles each access was blocked
system.cpu.dcache.writebacks::.writebacks          781                       # number of writebacks
system.cpu.dcache.writebacks::total               781                       # number of writebacks
system.cpu.dcache.demand_mshr_hits::.cpu.data         3078                       # number of demand (read+write) MSHR hits
system.cpu.dcache.demand_mshr_hits::total         3078                       # number of demand (read+write) MSHR hits
system.cpu.dcache.overall_mshr_hits::.cpu.data         3078                       # number of overall MSHR hits
system.cpu.dcache.overall_mshr_hits::total         3078                       # number of overall MSHR hits
system.cpu.dcache.demand_mshr_misses::.cpu.data         1516                       # number of demand (read+write) MSHR misses
system.cpu.dcache.demand_mshr_misses::total         1516                       # number of demand (read+write) MSHR misses
system.cpu.dcache.overall_mshr_misses::.cpu.data         1518                       # number of overall MSHR misses
system.cpu.dcache.overall_mshr_misses::total         1518                       # number of overall MSHR misses
system.cpu.dcache.demand_mshr_miss_latency::.cpu.data     93899968                       # number of demand (read+write) MSHR miss cycles
system.cpu.dcache.demand_mshr_miss_latency::total     93899968                       # number of demand (read+write) MSHR miss cycles
system.cpu.dcache.overall_mshr_miss_latency::.cpu.data     94076468                       # number of overall MSHR miss cycles
system.cpu.dcache.overall_mshr_miss_latency::total     94076468                       # number of overall MSHR miss cycles
system.cpu.dcache.demand_mshr_miss_rate::.cpu.data     0.004476                       # mshr miss rate for demand accesses
system.cpu.dcache.demand_mshr_miss_rate::total     0.004476                       # mshr miss rate for demand accesses
system.cpu.dcache.overall_mshr_miss_rate::.cpu.data     0.004475                       # mshr miss rate for overall accesses
system.cpu.dcache.overall_mshr_miss_rate::total     0.004475                       # mshr miss rate for overall accesses
system.cpu.dcache.demand_avg_mshr_miss_latency::.cpu.data 61939.292876                       # average overall mshr miss latency
system.cpu.dcache.demand_avg_mshr_miss_latency::total 61939.292876                       # average overall mshr miss latency
system.cpu.dcache.overall_avg_mshr_miss_latency::.cpu.data 61973.957839                       # average overall mshr miss latency
system.cpu.dcache.overall_avg_mshr_miss_latency::total 61973.957839                       # average overall mshr miss latency
system.cpu.dcache.replacements                   1024                       # number of replacements
system.cpu.dcache.ReadReq_hits::.cpu.data       202892                       # number of ReadReq hits
system.cpu.dcache.ReadReq_hits::total          202892                       # number of ReadReq hits
system.cpu.dcache.ReadReq_misses::.cpu.data         1153                       # number of ReadReq misses
system.cpu.dcache.ReadReq_misses::total          1153                       # number of ReadReq misses
system.cpu.dcache.ReadReq_miss_latency::.cpu.data     57372500                       # number of ReadReq miss cycles
system.cpu.dcache.ReadReq_miss_latency::total     57372500                       # number of ReadReq miss cycles
system.cpu.dcache.ReadReq_accesses::.cpu.data       204045                       # number of ReadReq accesses(hits+misses)
system.cpu.dcache.ReadReq_accesses::total       204045                       # number of ReadReq accesses(hits+misses)
system.cpu.dcache.ReadReq_miss_rate::.cpu.data     0.005651                       # miss rate for ReadReq accesses
system.cpu.dcache.ReadReq_miss_rate::total     0.005651                       # miss rate for ReadReq accesses
system.cpu.dcache.ReadReq_avg_miss_latency::.cpu.data 49759.323504                       # average ReadReq miss latency
system.cpu.dcache.ReadReq_avg_miss_latency::total 49759.323504                       # average ReadReq miss latency
system.cpu.dcache.ReadReq_mshr_hits::.cpu.data          583                       # number of ReadReq MSHR hits
system.cpu.dcache.ReadReq_mshr_hits::total          583                       # number of ReadReq MSHR hits
system.cpu.dcache.ReadReq_mshr_misses::.cpu.data          570                       # number of ReadReq MSHR misses
system.cpu.dcache.ReadReq_mshr_misses::total          570                       # number of ReadReq MSHR misses
system.cpu.dcache.ReadReq_mshr_miss_latency::.cpu.data     26961000                       # number of ReadReq MSHR miss cycles
system.cpu.dcache.ReadReq_mshr_miss_latency::total     26961000                       # number of ReadReq MSHR miss cycles
system.cpu.dcache.ReadReq_mshr_miss_rate::.cpu.data     0.002794                       # mshr miss rate for ReadReq accesses
system.cpu.dcache.ReadReq_mshr_miss_rate::total     0.002794                       # mshr miss rate for ReadReq accesses
system.cpu.dcache.ReadReq_avg_mshr_miss_latency::.cpu.data        47300                       # average ReadReq mshr miss latency
system.cpu.dcache.ReadReq_avg_mshr_miss_latency::total        47300                       # average ReadReq mshr miss latency
system.cpu.dcache.WriteReq_hits::.cpu.data       131149                       # number of WriteReq hits
system.cpu.dcache.WriteReq_hits::total         131149                       # number of WriteReq hits
system.cpu.dcache.WriteReq_misses::.cpu.data         3386                       # number of WriteReq misses
system.cpu.dcache.WriteReq_misses::total         3386                       # number of WriteReq misses
system.cpu.dcache.WriteReq_miss_latency::.cpu.data    229769447                       # number of WriteReq miss cycles
system.cpu.dcache.WriteReq_miss_latency::total    229769447                       # number of WriteReq miss cycles
system.cpu.dcache.WriteReq_accesses::.cpu.data       134535                       # number of WriteReq accesses(hits+misses)
system.cpu.dcache.WriteReq_accesses::total       134535                       # number of WriteReq accesses(hits+misses)
system.cpu.dcache.WriteReq_miss_rate::.cpu.data     0.025168                       # miss rate for WriteReq accesses
system.cpu.dcache.WriteReq_miss_rate::total     0.025168                       # miss rate for WriteReq accesses
system.cpu.dcache.WriteReq_avg_miss_latency::.cpu.data 67858.667159                       # average WriteReq miss latency
system.cpu.dcache.WriteReq_avg_miss_latency::total 67858.667159                       # average WriteReq miss latency
system.cpu.dcache.WriteReq_mshr_hits::.cpu.data         2495                       # number of WriteReq MSHR hits
system.cpu.dcache.WriteReq_mshr_hits::total         2495                       # number of WriteReq MSHR hits
system.cpu.dcache.WriteReq_mshr_misses::.cpu.data          891                       # number of WriteReq MSHR misses
system.cpu.dcache.WriteReq_mshr_misses::total          891                       # number of WriteReq MSHR misses
system.cpu.dcache.WriteReq_mshr_miss_latency::.cpu.data     65281995                       # number of WriteReq MSHR miss cycles
system.cpu.dcache.WriteReq_mshr_miss_latency::total     65281995                       # number of WriteReq MSHR miss cycles
system.cpu.dcache.WriteReq_mshr_miss_rate::.cpu.data     0.006623                       # mshr miss rate for WriteReq accesses
system.cpu.dcache.WriteReq_mshr_miss_rate::total     0.006623                       # mshr miss rate for WriteReq accesses
system.cpu.dcache.WriteReq_avg_mshr_miss_latency::.cpu.data 73268.232323                       # average WriteReq mshr miss latency
system.cpu.dcache.WriteReq_avg_mshr_miss_latency::total 73268.232323                       # average WriteReq mshr miss latency
system.cpu.dcache.SoftPFReq_hits::.cpu.data          518                       # number of SoftPFReq hits
system.cpu.dcache.SoftPFReq_hits::total           518                       # number of SoftPFReq hits
system.cpu.dcache.SoftPFReq_misses::.cpu.data            2                       # number of SoftPFReq misses
system.cpu.dcache.SoftPFReq_misses::total            2                       # number of SoftPFReq misses
system.cpu.dcache.SoftPFReq_accesses::.cpu.data          520                       # number of SoftPFReq accesses(hits+misses)
system.cpu.dcache.SoftPFReq_accesses::total          520                       # number of SoftPFReq accesses(hits+misses)
system.cpu.dcache.SoftPFReq_miss_rate::.cpu.data     0.003846                       # miss rate for SoftPFReq accesses
system.cpu.dcache.SoftPFReq_miss_rate::total     0.003846                       # miss rate for SoftPFReq accesses
system.cpu.dcache.SoftPFReq_mshr_misses::.cpu.data            2                       # number of SoftPFReq MSHR misses
system.cpu.dcache.SoftPFReq_mshr_misses::total            2                       # number of SoftPFReq MSHR misses
system.cpu.dcache.SoftPFReq_mshr_miss_latency::.cpu.data       176500                       # number of SoftPFReq MSHR miss cycles
system.cpu.dcache.SoftPFReq_mshr_miss_latency::total       176500                       # number of SoftPFReq MSHR miss cycles
system.cpu.dcache.SoftPFReq_mshr_miss_rate::.cpu.data     0.003846                       # mshr miss rate for SoftPFReq accesses
system.cpu.dcache.SoftPFReq_mshr_miss_rate::total     0.003846                       # mshr miss rate for SoftPFReq accesses
system.cpu.dcache.SoftPFReq_avg_mshr_miss_latency::.cpu.data        88250                       # average SoftPFReq mshr miss latency
system.cpu.dcache.SoftPFReq_avg_mshr_miss_latency::total        88250                       # average SoftPFReq mshr miss latency
system.cpu.dcache.WriteLineReq_hits::.cpu.data           27                       # number of WriteLineReq hits
system.cpu.dcache.WriteLineReq_hits::total           27                       # number of WriteLineReq hits
system.cpu.dcache.WriteLineReq_misses::.cpu.data           55                       # number of WriteLineReq misses
system.cpu.dcache.WriteLineReq_misses::total           55                       # number of WriteLineReq misses
system.cpu.dcache.WriteLineReq_miss_latency::.cpu.data      1711973                       # number of WriteLineReq miss cycles
system.cpu.dcache.WriteLineReq_miss_latency::total      1711973                       # number of WriteLineReq miss cycles
system.cpu.dcache.WriteLineReq_accesses::.cpu.data           82                       # number of WriteLineReq accesses(hits+misses)
system.cpu.dcache.WriteLineReq_accesses::total           82                       # number of WriteLineReq accesses(hits+misses)
system.cpu.dcache.WriteLineReq_miss_rate::.cpu.data     0.670732                       # miss rate for WriteLineReq accesses
system.cpu.dcache.WriteLineReq_miss_rate::total     0.670732                       # miss rate for WriteLineReq accesses
system.cpu.dcache.WriteLineReq_avg_miss_latency::.cpu.data 31126.781818                       # average WriteLineReq miss latency
system.cpu.dcache.WriteLineReq_avg_miss_latency::total 31126.781818                       # average WriteLineReq miss latency
system.cpu.dcache.WriteLineReq_mshr_misses::.cpu.data           55                       # number of WriteLineReq MSHR misses
system.cpu.dcache.WriteLineReq_mshr_misses::total           55                       # number of WriteLineReq MSHR misses
system.cpu.dcache.WriteLineReq_mshr_miss_latency::.cpu.data      1656973                       # number of WriteLineReq MSHR miss cycles
system.cpu.dcache.WriteLineReq_mshr_miss_latency::total      1656973                       # number of WriteLineReq MSHR miss cycles
system.cpu.dcache.WriteLineReq_mshr_miss_rate::.cpu.data     0.670732                       # mshr miss rate for WriteLineReq accesses
system.cpu.dcache.WriteLineReq_mshr_miss_rate::total     0.670732                       # mshr miss rate for WriteLineReq accesses
system.cpu.dcache.WriteLineReq_avg_mshr_miss_latency::.cpu.data 30126.781818                       # average WriteLineReq mshr miss latency
system.cpu.dcache.WriteLineReq_avg_mshr_miss_latency::total 30126.781818                       # average WriteLineReq mshr miss latency
system.cpu.dcache.LoadLockedReq_hits::.cpu.data          252                       # number of LoadLockedReq hits
system.cpu.dcache.LoadLockedReq_hits::total          252                       # number of LoadLockedReq hits
system.cpu.dcache.LoadLockedReq_misses::.cpu.data           16                       # number of LoadLockedReq misses
system.cpu.dcache.LoadLockedReq_misses::total           16                       # number of LoadLockedReq misses
system.cpu.dcache.LoadLockedReq_miss_latency::.cpu.data       278000                       # number of LoadLockedReq miss cycles
system.cpu.dcache.LoadLockedReq_miss_latency::total       278000                       # number of LoadLockedReq miss cycles
system.cpu.dcache.LoadLockedReq_accesses::.cpu.data          268                       # number of LoadLockedReq accesses(hits+misses)
system.cpu.dcache.LoadLockedReq_accesses::total          268                       # number of LoadLockedReq accesses(hits+misses)
system.cpu.dcache.LoadLockedReq_miss_rate::.cpu.data     0.059701                       # miss rate for LoadLockedReq accesses
system.cpu.dcache.LoadLockedReq_miss_rate::total     0.059701                       # miss rate for LoadLockedReq accesses
system.cpu.dcache.LoadLockedReq_avg_miss_latency::.cpu.data        17375                       # average LoadLockedReq miss latency
system.cpu.dcache.LoadLockedReq_avg_miss_latency::total        17375                       # average LoadLockedReq miss latency
system.cpu.dcache.LoadLockedReq_mshr_misses::.cpu.data           16                       # number of LoadLockedReq MSHR misses
system.cpu.dcache.LoadLockedReq_mshr_misses::total           16                       # number of LoadLockedReq MSHR misses
system.cpu.dcache.LoadLockedReq_mshr_miss_latency::.cpu.data       262000                       # number of LoadLockedReq MSHR miss cycles
system.cpu.dcache.LoadLockedReq_mshr_miss_latency::total       262000                       # number of LoadLockedReq MSHR miss cycles
system.cpu.dcache.LoadLockedReq_mshr_miss_rate::.cpu.data     0.059701                       # mshr miss rate for LoadLockedReq accesses
system.cpu.dcache.LoadLockedReq_mshr_miss_rate::total     0.059701                       # mshr miss rate for LoadLockedReq accesses
system.cpu.dcache.LoadLockedReq_avg_mshr_miss_latency::.cpu.data        16375                       # average LoadLockedReq mshr miss latency
system.cpu.dcache.LoadLockedReq_avg_mshr_miss_latency::total        16375                       # average LoadLockedReq mshr miss latency
system.cpu.dcache.StoreCondReq_hits::.cpu.data          234                       # number of StoreCondReq hits
system.cpu.dcache.StoreCondReq_hits::total          234                       # number of StoreCondReq hits
system.cpu.dcache.StoreCondReq_accesses::.cpu.data          234                       # number of StoreCondReq accesses(hits+misses)
system.cpu.dcache.StoreCondReq_accesses::total          234                       # number of StoreCondReq accesses(hits+misses)
system.cpu.dcache.power_state.pwrStateResidencyTicks::UNDEFINED    468934500                       # Cumulative time (in ticks) in various power states
system.cpu.dcache.tags.tagsinuse           454.875030                       # Cycle average of tags in use
system.cpu.dcache.tags.total_refs              336606                       # Total number of references to valid blocks.
system.cpu.dcache.tags.sampled_refs              1534                       # Sample count of references to valid blocks.
system.cpu.dcache.tags.avg_refs            219.430248                       # Average number of references to valid blocks.
system.cpu.dcache.tags.warmup_cycle            176500                       # Cycle when the warmup percentage was hit.
system.cpu.dcache.tags.occ_blocks::.cpu.data   454.875030                       # Average occupied blocks per requestor
system.cpu.dcache.tags.occ_percent::.cpu.data     0.888428                       # Average percentage of cache occupancy
system.cpu.dcache.tags.occ_percent::total     0.888428                       # Average percentage of cache occupancy
system.cpu.dcache.tags.occ_task_id_blocks::1024          510                       # Occupied blocks per task id
system.cpu.dcache.tags.age_task_id_blocks_1024::0           29                       # Occupied blocks per task id
system.cpu.dcache.tags.age_task_id_blocks_1024::1          178                       # Occupied blocks per task id
system.cpu.dcache.tags.age_task_id_blocks_1024::2          303                       # Occupied blocks per task id
system.cpu.dcache.tags.occ_task_id_percent::1024     0.996094                       # Percentage of cache occupancy per task id
system.cpu.dcache.tags.tag_accesses            680902                       # Number of tag accesses
system.cpu.dcache.tags.data_accesses           680902                       # Number of data accesses
system.cpu.dcache.tags.power_state.pwrStateResidencyTicks::UNDEFINED    468934500                       # Cumulative time (in ticks) in various power states
system.cpu.power_state.pwrStateResidencyTicks::ON    468934500                       # Cumulative time (in ticks) in various power states

---------- End Simulation Statistics   ----------
