
---------- Begin Simulation Statistics ----------
final_tick                                  171474500                       # Number of ticks from beginning of simulation (restored from checkpoints and never reset)
host_inst_rate                                 174751                       # Simulator instruction rate (inst/s)
host_mem_usage                                 850304                       # Number of bytes of host memory used
host_op_rate                                   218825                       # Simulator op (including micro ops) rate (op/s)
host_seconds                                     2.86                       # Real time elapsed on the host
host_tick_rate                               59926335                       # Simulator tick rate (ticks/s)
sim_freq                                 1000000000000                       # Frequency of simulated ticks
sim_insts                                      500002                       # Number of instructions simulated
sim_ops                                        626147                       # Number of ops (including micro ops) simulated
sim_seconds                                  0.000171                       # Number of seconds simulated
sim_ticks                                   171474500                       # Number of ticks simulated
system.cpu.branchPred.BTBCorrect                    0                       # Number of correct BTB predictions (this stat may not work properly.
system.cpu.branchPred.BTBHitPct             96.229139                       # BTB Hit Percentage
system.cpu.branchPred.BTBHits                   33328                       # Number of BTB hits
system.cpu.branchPred.BTBLookups                34634                       # Number of BTB lookups
system.cpu.branchPred.RASInCorrect                  2                       # Number of incorrect RAS predictions.
system.cpu.branchPred.condIncorrect              1014                       # Number of conditional branches incorrect
system.cpu.branchPred.condPredicted             70687                       # Number of conditional branches predicted
system.cpu.branchPred.indirectHits                  7                       # Number of indirect target hits.
system.cpu.branchPred.indirectLookups             185                       # Number of indirect predictor lookups.
system.cpu.branchPred.indirectMisses              178                       # Number of indirect misses.
system.cpu.branchPred.lookups                   97990                       # Number of BP lookups
system.cpu.branchPred.usedRAS                    7900                       # Number of times the RAS was used to get a target.
system.cpu.branchPredindirectMispredicted           64                       # Number of mispredicted indirect branches.
system.cpu.cc_regfile_reads                    130656                       # number of cc regfile reads
system.cpu.cc_regfile_writes                   130530                       # number of cc regfile writes
system.cpu.commit.amos                              0                       # Number of atomic instructions committed
system.cpu.commit.branchMispredicts               680                       # The number of times a branch was mispredicted
system.cpu.commit.branches                      93687                       # Number of branches committed
system.cpu.commit.bw_lim_events                 46739                       # number cycles where commit BW limit reached
system.cpu.commit.commitNonSpecStalls              60                       # The number of times commit has been forced to stall to communicate backwards
system.cpu.commit.commitSquashedInsts           11405                       # The number of squashed insts skipped by commit
system.cpu.commit.committedInsts               500029                       # Number of instructions committed
system.cpu.commit.committedOps                 626174                       # Number of ops (including micro ops) committed
system.cpu.commit.committed_per_cycle::samples       283282                       # Number of insts commited each cycle
system.cpu.commit.committed_per_cycle::mean     2.210426                       # Number of insts commited each cycle
system.cpu.commit.committed_per_cycle::stdev     3.045494                       # Number of insts commited each cycle
system.cpu.commit.committed_per_cycle::underflows            0      0.00%      0.00% # Number of insts commited each cycle
system.cpu.commit.committed_per_cycle::0       138065     48.74%     48.74% # Number of insts commited each cycle
system.cpu.commit.committed_per_cycle::1        50383     17.79%     66.52% # Number of insts commited each cycle
system.cpu.commit.committed_per_cycle::2         8959      3.16%     69.69% # Number of insts commited each cycle
system.cpu.commit.committed_per_cycle::3         8161      2.88%     72.57% # Number of insts commited each cycle
system.cpu.commit.committed_per_cycle::4        13144      4.64%     77.21% # Number of insts commited each cycle
system.cpu.commit.committed_per_cycle::5         4730      1.67%     78.88% # Number of insts commited each cycle
system.cpu.commit.committed_per_cycle::6         8455      2.98%     81.86% # Number of insts commited each cycle
system.cpu.commit.committed_per_cycle::7         4646      1.64%     83.50% # Number of insts commited each cycle
system.cpu.commit.committed_per_cycle::8        46739     16.50%    100.00% # Number of insts commited each cycle
system.cpu.commit.committed_per_cycle::overflows            0      0.00%    100.00% # Number of insts commited each cycle
system.cpu.commit.committed_per_cycle::min_value            0                       # Number of insts commited each cycle
system.cpu.commit.committed_per_cycle::max_value            8                       # Number of insts commited each cycle
system.cpu.commit.committed_per_cycle::total       283282                       # Number of insts commited each cycle
system.cpu.commit.fp_insts                          0                       # Number of committed floating point instructions.
system.cpu.commit.function_calls                 7664                       # Number of function calls committed.
system.cpu.commit.int_insts                    578604                       # Number of committed integer instructions.
system.cpu.commit.loads                         99559                       # Number of loads committed
system.cpu.commit.membars                          46                       # Number of memory barriers committed
system.cpu.commit.op_class_0::No_OpClass            4      0.00%      0.00% # Class of committed instruction
system.cpu.commit.op_class_0::IntAlu           402860     64.34%     64.34% # Class of committed instruction
system.cpu.commit.op_class_0::IntMult            3010      0.48%     64.82% # Class of committed instruction
system.cpu.commit.op_class_0::IntDiv                3      0.00%     64.82% # Class of committed instruction
system.cpu.commit.op_class_0::FloatAdd           1486      0.24%     65.06% # Class of committed instruction
system.cpu.commit.op_class_0::FloatCmp              0      0.00%     65.06% # Class of committed instruction
system.cpu.commit.op_class_0::FloatCvt           1492      0.24%     65.29% # Class of committed instruction
system.cpu.commit.op_class_0::FloatMult             4      0.00%     65.29% # Class of committed instruction
system.cpu.commit.op_class_0::FloatMultAcc            1      0.00%     65.29% # Class of committed instruction
system.cpu.commit.op_class_0::FloatDiv           1489      0.24%     65.53% # Class of committed instruction
system.cpu.commit.op_class_0::FloatMisc          1492      0.24%     65.77% # Class of committed instruction
system.cpu.commit.op_class_0::FloatSqrt             0      0.00%     65.77% # Class of committed instruction
system.cpu.commit.op_class_0::SimdAdd              18      0.00%     65.77% # Class of committed instruction
system.cpu.commit.op_class_0::SimdAddAcc            0      0.00%     65.77% # Class of committed instruction
system.cpu.commit.op_class_0::SimdAlu              16      0.00%     65.78% # Class of committed instruction
system.cpu.commit.op_class_0::SimdCmp              16      0.00%     65.78% # Class of committed instruction
system.cpu.commit.op_class_0::SimdCvt               2      0.00%     65.78% # Class of committed instruction
system.cpu.commit.op_class_0::SimdMisc             15      0.00%     65.78% # Class of committed instruction
system.cpu.commit.op_class_0::SimdMult              0      0.00%     65.78% # Class of committed instruction
system.cpu.commit.op_class_0::SimdMultAcc            0      0.00%     65.78% # Class of committed instruction
system.cpu.commit.op_class_0::SimdShift             0      0.00%     65.78% # Class of committed instruction
system.cpu.commit.op_class_0::SimdShiftAcc            0      0.00%     65.78% # Class of committed instruction
system.cpu.commit.op_class_0::SimdDiv               0      0.00%     65.78% # Class of committed instruction
system.cpu.commit.op_class_0::SimdSqrt              0      0.00%     65.78% # Class of committed instruction
system.cpu.commit.op_class_0::SimdFloatAdd            0      0.00%     65.78% # Class of committed instruction
system.cpu.commit.op_class_0::SimdFloatAlu            0      0.00%     65.78% # Class of committed instruction
system.cpu.commit.op_class_0::SimdFloatCmp            0      0.00%     65.78% # Class of committed instruction
system.cpu.commit.op_class_0::SimdFloatCvt            0      0.00%     65.78% # Class of committed instruction
system.cpu.commit.op_class_0::SimdFloatDiv            0      0.00%     65.78% # Class of committed instruction
system.cpu.commit.op_class_0::SimdFloatMisc            0      0.00%     65.78% # Class of committed instruction
system.cpu.commit.op_class_0::SimdFloatMult            0      0.00%     65.78% # Class of committed instruction
system.cpu.commit.op_class_0::SimdFloatMultAcc            0      0.00%     65.78% # Class of committed instruction
system.cpu.commit.op_class_0::SimdFloatSqrt            0      0.00%     65.78% # Class of committed instruction
system.cpu.commit.op_class_0::SimdReduceAdd            0      0.00%     65.78% # Class of committed instruction
system.cpu.commit.op_class_0::SimdReduceAlu            0      0.00%     65.78% # Class of committed instruction
system.cpu.commit.op_class_0::SimdReduceCmp            0      0.00%     65.78% # Class of committed instruction
system.cpu.commit.op_class_0::SimdFloatReduceAdd            0      0.00%     65.78% # Class of committed instruction
system.cpu.commit.op_class_0::SimdFloatReduceCmp            0      0.00%     65.78% # Class of committed instruction
system.cpu.commit.op_class_0::SimdAes               0      0.00%     65.78% # Class of committed instruction
system.cpu.commit.op_class_0::SimdAesMix            0      0.00%     65.78% # Class of committed instruction
system.cpu.commit.op_class_0::SimdSha1Hash            0      0.00%     65.78% # Class of committed instruction
system.cpu.commit.op_class_0::SimdSha1Hash2            0      0.00%     65.78% # Class of committed instruction
system.cpu.commit.op_class_0::SimdSha256Hash            0      0.00%     65.78% # Class of committed instruction
system.cpu.commit.op_class_0::SimdSha256Hash2            0      0.00%     65.78% # Class of committed instruction
system.cpu.commit.op_class_0::SimdShaSigma2            0      0.00%     65.78% # Class of committed instruction
system.cpu.commit.op_class_0::SimdShaSigma3            0      0.00%     65.78% # Class of committed instruction
system.cpu.commit.op_class_0::SimdPredAlu            0      0.00%     65.78% # Class of committed instruction
system.cpu.commit.op_class_0::MemRead           99559     15.90%     81.68% # Class of committed instruction
system.cpu.commit.op_class_0::MemWrite         114707     18.32%    100.00% # Class of committed instruction
system.cpu.commit.op_class_0::FloatMemRead            0      0.00%    100.00% # Class of committed instruction
system.cpu.commit.op_class_0::FloatMemWrite            0      0.00%    100.00% # Class of committed instruction
system.cpu.commit.op_class_0::IprAccess             0      0.00%    100.00% # Class of committed instruction
system.cpu.commit.op_class_0::InstPrefetch            0      0.00%    100.00% # Class of committed instruction
system.cpu.commit.op_class_0::total            626174                       # Class of committed instruction
system.cpu.commit.refs                         214266                       # Number of memory references committed
system.cpu.commit.swp_count                         0                       # Number of s/w prefetches committed
system.cpu.commit.vec_insts                      6280                       # Number of committed Vector instructions.
system.cpu.committedInsts                      500002                       # Number of Instructions Simulated
system.cpu.committedOps                        626147                       # Number of Ops (including micro ops) Simulated
system.cpu.cpi                               0.685897                       # CPI: Cycles Per Instruction
system.cpu.cpi_total                         0.685897                       # CPI: Total CPI of All Threads
system.cpu.decode.BlockedCycles                157634                       # Number of cycles decode is blocked
system.cpu.decode.BranchMispred                   346                       # Number of times decode detected a branch misprediction
system.cpu.decode.BranchResolved                33490                       # Number of times decode resolved a branch
system.cpu.decode.DecodedInsts                 641994                       # Number of instructions handled by decode
system.cpu.decode.IdleCycles                    34882                       # Number of cycles decode is idle
system.cpu.decode.RunCycles                     79589                       # Number of cycles decode is running
system.cpu.decode.SquashCycles                    729                       # Number of cycles decode is squashing
system.cpu.decode.SquashedInsts                  1205                       # Number of squashed instructions handled by decode
system.cpu.decode.UnblockCycles                 12329                       # Number of cycles decode is unblocking
system.cpu.dtb.accesses                             0                       # DTB accesses
system.cpu.dtb.align_faults                         0                       # Number of TLB faults due to alignment restrictions
system.cpu.dtb.domain_faults                        0                       # Number of TLB faults due to domain restrictions
system.cpu.dtb.flush_entries                        0                       # Number of entries that have been flushed from TLB
system.cpu.dtb.flush_tlb                            0                       # Number of times complete TLB was flushed
system.cpu.dtb.flush_tlb_asid                       0                       # Number of times TLB was flushed by ASID
system.cpu.dtb.flush_tlb_mva                        0                       # Number of times TLB was flushed by MVA
system.cpu.dtb.flush_tlb_mva_asid                   0                       # Number of times TLB was flushed by MVA & ASID
system.cpu.dtb.hits                                 0                       # DTB hits
system.cpu.dtb.inst_accesses                        0                       # ITB inst accesses
system.cpu.dtb.inst_hits                            0                       # ITB inst hits
system.cpu.dtb.inst_misses                          0                       # ITB inst misses
system.cpu.dtb.misses                               0                       # DTB misses
system.cpu.dtb.perms_faults                         0                       # Number of TLB faults due to permissions restrictions
system.cpu.dtb.prefetch_faults                      0                       # Number of TLB faults due to prefetch
system.cpu.dtb.read_accesses                        0                       # DTB read accesses
system.cpu.dtb.read_hits                            0                       # DTB read hits
system.cpu.dtb.read_misses                          0                       # DTB read misses
system.cpu.dtb.stage2_mmu.stage2_tlb.accesses            0                       # DTB accesses
system.cpu.dtb.stage2_mmu.stage2_tlb.align_faults            0                       # Number of TLB faults due to alignment restrictions
system.cpu.dtb.stage2_mmu.stage2_tlb.domain_faults            0                       # Number of TLB faults due to domain restrictions
system.cpu.dtb.stage2_mmu.stage2_tlb.flush_entries            0                       # Number of entries that have been flushed from TLB
system.cpu.dtb.stage2_mmu.stage2_tlb.flush_tlb            0                       # Number of times complete TLB was flushed
system.cpu.dtb.stage2_mmu.stage2_tlb.flush_tlb_asid            0                       # Number of times TLB was flushed by ASID
system.cpu.dtb.stage2_mmu.stage2_tlb.flush_tlb_mva            0                       # Number of times TLB was flushed by MVA
system.cpu.dtb.stage2_mmu.stage2_tlb.flush_tlb_mva_asid            0                       # Number of times TLB was flushed by MVA & ASID
system.cpu.dtb.stage2_mmu.stage2_tlb.hits            0                       # DTB hits
system.cpu.dtb.stage2_mmu.stage2_tlb.inst_accesses            0                       # ITB inst accesses
system.cpu.dtb.stage2_mmu.stage2_tlb.inst_hits            0                       # ITB inst hits
system.cpu.dtb.stage2_mmu.stage2_tlb.inst_misses            0                       # ITB inst misses
system.cpu.dtb.stage2_mmu.stage2_tlb.misses            0                       # DTB misses
system.cpu.dtb.stage2_mmu.stage2_tlb.perms_faults            0                       # Number of TLB faults due to permissions restrictions
system.cpu.dtb.stage2_mmu.stage2_tlb.prefetch_faults            0                       # Number of TLB faults due to prefetch
system.cpu.dtb.stage2_mmu.stage2_tlb.read_accesses            0                       # DTB read accesses
system.cpu.dtb.stage2_mmu.stage2_tlb.read_hits            0                       # DTB read hits
system.cpu.dtb.stage2_mmu.stage2_tlb.read_misses            0                       # DTB read misses
system.cpu.dtb.stage2_mmu.stage2_tlb.walker.walkRequestOrigin_Requested::Data            0                       # Table walker requests started/completed, data/inst
system.cpu.dtb.stage2_mmu.stage2_tlb.walker.walkRequestOrigin_Requested::Inst            0                       # Table walker requests started/completed, data/inst
system.cpu.dtb.stage2_mmu.stage2_tlb.walker.walkRequestOrigin_Requested::total            0                       # Table walker requests started/completed, data/inst
system.cpu.dtb.stage2_mmu.stage2_tlb.walker.walkRequestOrigin_Completed::Data            0                       # Table walker requests started/completed, data/inst
system.cpu.dtb.stage2_mmu.stage2_tlb.walker.walkRequestOrigin_Completed::Inst            0                       # Table walker requests started/completed, data/inst
system.cpu.dtb.stage2_mmu.stage2_tlb.walker.walkRequestOrigin_Completed::total            0                       # Table walker requests started/completed, data/inst
system.cpu.dtb.stage2_mmu.stage2_tlb.walker.walkRequestOrigin::total            0                       # Table walker requests started/completed, data/inst
system.cpu.dtb.stage2_mmu.stage2_tlb.walker.walks            0                       # Table walker walks requested
system.cpu.dtb.stage2_mmu.stage2_tlb.write_accesses            0                       # DTB write accesses
system.cpu.dtb.stage2_mmu.stage2_tlb.write_hits            0                       # DTB write hits
system.cpu.dtb.stage2_mmu.stage2_tlb.write_misses            0                       # DTB write misses
system.cpu.dtb.walker.walkRequestOrigin_Requested::Data            0                       # Table walker requests started/completed, data/inst
system.cpu.dtb.walker.walkRequestOrigin_Requested::Inst            0                       # Table walker requests started/completed, data/inst
system.cpu.dtb.walker.walkRequestOrigin_Requested::total            0                       # Table walker requests started/completed, data/inst
system.cpu.dtb.walker.walkRequestOrigin_Completed::Data            0                       # Table walker requests started/completed, data/inst
system.cpu.dtb.walker.walkRequestOrigin_Completed::Inst            0                       # Table walker requests started/completed, data/inst
system.cpu.dtb.walker.walkRequestOrigin_Completed::total            0                       # Table walker requests started/completed, data/inst
system.cpu.dtb.walker.walkRequestOrigin::total            0                       # Table walker requests started/completed, data/inst
system.cpu.dtb.walker.walks                         0                       # Table walker walks requested
system.cpu.dtb.write_accesses                       0                       # DTB write accesses
system.cpu.dtb.write_hits                           0                       # DTB write hits
system.cpu.dtb.write_misses                         0                       # DTB write misses
system.cpu.fetch.Branches                       97990                       # Number of branches that fetch encountered
system.cpu.fetch.CacheLines                     63394                       # Number of cache lines fetched
system.cpu.fetch.Cycles                        205813                       # Number of cycles fetch has run and was not squashing or blocked
system.cpu.fetch.IcacheSquashes                   662                       # Number of outstanding Icache misses that were squashed
system.cpu.fetch.IcacheWaitRetryStallCycles           69                       # Number of stall cycles due to full MSHR
system.cpu.fetch.Insts                         519320                       # Number of instructions fetch has processed
system.cpu.fetch.MiscStallCycles                    5                       # Number of cycles fetch has spent waiting on interrupts, or bad addresses, or out of MSHRs
system.cpu.fetch.SquashCycles                    2126                       # Number of cycles fetch has spent squashing
system.cpu.fetch.branchRate                  0.285727                       # Number of branch fetches per cycle
system.cpu.fetch.icacheStallCycles              78213                       # Number of cycles fetch is stalled on an Icache miss
system.cpu.fetch.predictedBranches              41235                       # Number of branches that fetch has predicted taken
system.cpu.fetch.rate                        1.514273                       # Number of inst fetches per cycle
system.cpu.fetch.rateDist::samples             285163                       # Number of instructions fetched each cycle (Total)
system.cpu.fetch.rateDist::mean              2.271655                       # Number of instructions fetched each cycle (Total)
system.cpu.fetch.rateDist::stdev             3.171624                       # Number of instructions fetched each cycle (Total)
system.cpu.fetch.rateDist::underflows               0      0.00%      0.00% # Number of instructions fetched each cycle (Total)
system.cpu.fetch.rateDist::0                   166190     58.28%     58.28% # Number of instructions fetched each cycle (Total)
system.cpu.fetch.rateDist::1                    11057      3.88%     62.16% # Number of instructions fetched each cycle (Total)
system.cpu.fetch.rateDist::2                    14257      5.00%     67.16% # Number of instructions fetched each cycle (Total)
system.cpu.fetch.rateDist::3                    12508      4.39%     71.54% # Number of instructions fetched each cycle (Total)
system.cpu.fetch.rateDist::4                     2976      1.04%     72.59% # Number of instructions fetched each cycle (Total)
system.cpu.fetch.rateDist::5                    14570      5.11%     77.70% # Number of instructions fetched each cycle (Total)
system.cpu.fetch.rateDist::6                    10137      3.55%     81.25% # Number of instructions fetched each cycle (Total)
system.cpu.fetch.rateDist::7                     2623      0.92%     82.17% # Number of instructions fetched each cycle (Total)
system.cpu.fetch.rateDist::8                    50845     17.83%    100.00% # Number of instructions fetched each cycle (Total)
system.cpu.fetch.rateDist::overflows                0      0.00%    100.00% # Number of instructions fetched each cycle (Total)
system.cpu.fetch.rateDist::min_value                0                       # Number of instructions fetched each cycle (Total)
system.cpu.fetch.rateDist::max_value                8                       # Number of instructions fetched each cycle (Total)
system.cpu.fetch.rateDist::total               285163                       # Number of instructions fetched each cycle (Total)
system.cpu.idleCycles                           57787                       # Total number of cycles that the CPU has spent unscheduled due to idling
system.cpu.iew.branchMispredicts                  792                       # Number of branch mispredicts detected at execute
system.cpu.iew.exec_branches                    94857                       # Number of branches executed
system.cpu.iew.exec_nop                            56                       # number of nop insts executed
system.cpu.iew.exec_rate                     1.847097                       # Inst execution rate
system.cpu.iew.exec_refs                       216468                       # number of memory reference insts executed
system.cpu.iew.exec_stores                     115366                       # Number of stores executed
system.cpu.iew.exec_swp                             0                       # number of swp insts executed
system.cpu.iew.iewBlockCycles                    1739                       # Number of cycles IEW is blocking
system.cpu.iew.iewDispLoadInsts                101450                       # Number of dispatched load instructions
system.cpu.iew.iewDispNonSpecInsts                 82                       # Number of dispatched non-speculative instructions
system.cpu.iew.iewDispSquashedInsts               155                       # Number of squashed instructions skipped by dispatch
system.cpu.iew.iewDispStoreInsts               116124                       # Number of dispatched store instructions
system.cpu.iew.iewDispatchedInsts              637723                       # Number of instructions dispatched to IQ
system.cpu.iew.iewExecLoadInsts                101102                       # Number of load instructions executed
system.cpu.iew.iewExecSquashedInsts              1130                       # Number of squashed instructions skipped in execute
system.cpu.iew.iewExecutedInsts                633462                       # Number of executed instructions
system.cpu.iew.iewIQFullEvents                      5                       # Number of times the IQ has become full, causing a stall
system.cpu.iew.iewIdleCycles                        0                       # Number of cycles IEW is idle
system.cpu.iew.iewLSQFullEvents                    14                       # Number of times the LSQ has become full, causing a stall
system.cpu.iew.iewSquashCycles                    729                       # Number of cycles IEW is squashing
system.cpu.iew.iewUnblockCycles                    23                       # Number of cycles IEW is unblocking
system.cpu.iew.lsq.thread0.blockedLoads             0                       # Number of blocked loads due to partial load-store forwarding
system.cpu.iew.lsq.thread0.cacheBlocked            59                       # Number of times an access to memory failed due to the cache being blocked
system.cpu.iew.lsq.thread0.forwLoads              127                       # Number of loads that had data forwarded from stores
system.cpu.iew.lsq.thread0.ignoredResponses            7                       # Number of memory responses ignored because the instruction is squashed
system.cpu.iew.lsq.thread0.invAddrLoads             0                       # Number of loads ignored due to an invalid address
system.cpu.iew.lsq.thread0.invAddrSwpfs             0                       # Number of software prefetches ignored due to an invalid address
system.cpu.iew.lsq.thread0.memOrderViolation           40                       # Number of memory ordering violations
system.cpu.iew.lsq.thread0.rescheduledLoads          157                       # Number of loads that were rescheduled
system.cpu.iew.lsq.thread0.squashedLoads         1889                       # Number of loads squashed
system.cpu.iew.lsq.thread0.squashedStores         1407                       # Number of stores squashed
system.cpu.iew.memOrderViolationEvents             40                       # Number of memory order violations
system.cpu.iew.predictedNotTakenIncorrect          709                       # Number of branches that were predicted not taken incorrectly
system.cpu.iew.predictedTakenIncorrect             83                       # Number of branches that were predicted taken incorrectly
system.cpu.iew.wb_consumers                    626198                       # num instructions consuming a value
system.cpu.iew.wb_count                        632418                       # cumulative count of insts written-back
system.cpu.iew.wb_fanout                     0.561509                       # average fanout of values written-back
system.cpu.iew.wb_producers                    351616                       # num instructions producing a value
system.cpu.iew.wb_rate                       1.844053                       # insts written-back per cycle
system.cpu.iew.wb_sent                         632834                       # cumulative count of insts sent to commit
system.cpu.int_regfile_reads                   748958                       # number of integer regfile reads
system.cpu.int_regfile_writes                  460458                       # number of integer regfile writes
system.cpu.ipc                               1.457944                       # IPC: Instructions Per Cycle
system.cpu.ipc_total                         1.457944                       # IPC: Total IPC of All Threads
system.cpu.iq.FU_type_0::No_OpClass                 6      0.00%      0.00% # Type of FU issued
system.cpu.iq.FU_type_0::IntAlu                408595     64.39%     64.39% # Type of FU issued
system.cpu.iq.FU_type_0::IntMult                 3011      0.47%     64.86% # Type of FU issued
system.cpu.iq.FU_type_0::IntDiv                     3      0.00%     64.86% # Type of FU issued
system.cpu.iq.FU_type_0::FloatAdd                1486      0.23%     65.10% # Type of FU issued
system.cpu.iq.FU_type_0::FloatCmp                   0      0.00%     65.10% # Type of FU issued
system.cpu.iq.FU_type_0::FloatCvt                1492      0.24%     65.33% # Type of FU issued
system.cpu.iq.FU_type_0::FloatMult                  4      0.00%     65.33% # Type of FU issued
system.cpu.iq.FU_type_0::FloatMultAcc               1      0.00%     65.33% # Type of FU issued
system.cpu.iq.FU_type_0::FloatDiv                1489      0.23%     65.57% # Type of FU issued
system.cpu.iq.FU_type_0::FloatMisc               1492      0.24%     65.80% # Type of FU issued
system.cpu.iq.FU_type_0::FloatSqrt                  0      0.00%     65.80% # Type of FU issued
system.cpu.iq.FU_type_0::SimdAdd                   24      0.00%     65.81% # Type of FU issued
system.cpu.iq.FU_type_0::SimdAddAcc                 0      0.00%     65.81% # Type of FU issued
system.cpu.iq.FU_type_0::SimdAlu                   20      0.00%     65.81% # Type of FU issued
system.cpu.iq.FU_type_0::SimdCmp                   23      0.00%     65.81% # Type of FU issued
system.cpu.iq.FU_type_0::SimdCvt                    2      0.00%     65.81% # Type of FU issued
system.cpu.iq.FU_type_0::SimdMisc                  17      0.00%     65.82% # Type of FU issued
system.cpu.iq.FU_type_0::SimdMult                   0      0.00%     65.82% # Type of FU issued
system.cpu.iq.FU_type_0::SimdMultAcc                0      0.00%     65.82% # Type of FU issued
system.cpu.iq.FU_type_0::SimdShift                  0      0.00%     65.82% # Type of FU issued
system.cpu.iq.FU_type_0::SimdShiftAcc               0      0.00%     65.82% # Type of FU issued
system.cpu.iq.FU_type_0::SimdDiv                    0      0.00%     65.82% # Type of FU issued
system.cpu.iq.FU_type_0::SimdSqrt                   0      0.00%     65.82% # Type of FU issued
system.cpu.iq.FU_type_0::SimdFloatAdd               0      0.00%     65.82% # Type of FU issued
system.cpu.iq.FU_type_0::SimdFloatAlu               0      0.00%     65.82% # Type of FU issued
system.cpu.iq.FU_type_0::SimdFloatCmp               0      0.00%     65.82% # Type of FU issued
system.cpu.iq.FU_type_0::SimdFloatCvt               0      0.00%     65.82% # Type of FU issued
system.cpu.iq.FU_type_0::SimdFloatDiv               0      0.00%     65.82% # Type of FU issued
system.cpu.iq.FU_type_0::SimdFloatMisc              0      0.00%     65.82% # Type of FU issued
system.cpu.iq.FU_type_0::SimdFloatMult              0      0.00%     65.82% # Type of FU issued
system.cpu.iq.FU_type_0::SimdFloatMultAcc            0      0.00%     65.82% # Type of FU issued
system.cpu.iq.FU_type_0::SimdFloatSqrt              0      0.00%     65.82% # Type of FU issued
system.cpu.iq.FU_type_0::SimdReduceAdd              0      0.00%     65.82% # Type of FU issued
system.cpu.iq.FU_type_0::SimdReduceAlu              0      0.00%     65.82% # Type of FU issued
system.cpu.iq.FU_type_0::SimdReduceCmp              0      0.00%     65.82% # Type of FU issued
system.cpu.iq.FU_type_0::SimdFloatReduceAdd            0      0.00%     65.82% # Type of FU issued
system.cpu.iq.FU_type_0::SimdFloatReduceCmp            0      0.00%     65.82% # Type of FU issued
system.cpu.iq.FU_type_0::SimdAes                    0      0.00%     65.82% # Type of FU issued
system.cpu.iq.FU_type_0::SimdAesMix                 0      0.00%     65.82% # Type of FU issued
system.cpu.iq.FU_type_0::SimdSha1Hash               0      0.00%     65.82% # Type of FU issued
system.cpu.iq.FU_type_0::SimdSha1Hash2              0      0.00%     65.82% # Type of FU issued
system.cpu.iq.FU_type_0::SimdSha256Hash             0      0.00%     65.82% # Type of FU issued
system.cpu.iq.FU_type_0::SimdSha256Hash2            0      0.00%     65.82% # Type of FU issued
system.cpu.iq.FU_type_0::SimdShaSigma2              0      0.00%     65.82% # Type of FU issued
system.cpu.iq.FU_type_0::SimdShaSigma3              0      0.00%     65.82% # Type of FU issued
system.cpu.iq.FU_type_0::SimdPredAlu                0      0.00%     65.82% # Type of FU issued
system.cpu.iq.FU_type_0::MemRead               101342     15.97%     81.79% # Type of FU issued
system.cpu.iq.FU_type_0::MemWrite              115592     18.21%    100.00% # Type of FU issued
system.cpu.iq.FU_type_0::FloatMemRead               0      0.00%    100.00% # Type of FU issued
system.cpu.iq.FU_type_0::FloatMemWrite              0      0.00%    100.00% # Type of FU issued
system.cpu.iq.FU_type_0::IprAccess                  0      0.00%    100.00% # Type of FU issued
system.cpu.iq.FU_type_0::InstPrefetch               0      0.00%    100.00% # Type of FU issued
system.cpu.iq.FU_type_0::total                 634599                       # Type of FU issued
system.cpu.iq.fp_alu_accesses                       0                       # Number of floating point alu accesses
system.cpu.iq.fp_inst_queue_reads                   0                       # Number of floating instruction queue reads
system.cpu.iq.fp_inst_queue_wakeup_accesses            0                       # Number of floating instruction queue wakeup accesses
system.cpu.iq.fp_inst_queue_writes                  0                       # Number of floating instruction queue writes
system.cpu.iq.fu_busy_cnt                       12413                       # FU busy when requested
system.cpu.iq.fu_busy_rate                   0.019560                       # FU busy rate (busy events/executed inst)
system.cpu.iq.fu_full::No_OpClass                   0      0.00%      0.00% # attempts to use FU when none available
system.cpu.iq.fu_full::IntAlu                    1670     13.45%     13.45% # attempts to use FU when none available
system.cpu.iq.fu_full::IntMult                      0      0.00%     13.45% # attempts to use FU when none available
system.cpu.iq.fu_full::IntDiv                       0      0.00%     13.45% # attempts to use FU when none available
system.cpu.iq.fu_full::FloatAdd                     0      0.00%     13.45% # attempts to use FU when none available
system.cpu.iq.fu_full::FloatCmp                     0      0.00%     13.45% # attempts to use FU when none available
system.cpu.iq.fu_full::FloatCvt                     0      0.00%     13.45% # attempts to use FU when none available
system.cpu.iq.fu_full::FloatMult                    2      0.02%     13.47% # attempts to use FU when none available
system.cpu.iq.fu_full::FloatMultAcc                 0      0.00%     13.47% # attempts to use FU when none available
system.cpu.iq.fu_full::FloatDiv                     1      0.01%     13.48% # attempts to use FU when none available
system.cpu.iq.fu_full::FloatMisc                   11      0.09%     13.57% # attempts to use FU when none available
system.cpu.iq.fu_full::FloatSqrt                    0      0.00%     13.57% # attempts to use FU when none available
system.cpu.iq.fu_full::SimdAdd                      0      0.00%     13.57% # attempts to use FU when none available
system.cpu.iq.fu_full::SimdAddAcc                   0      0.00%     13.57% # attempts to use FU when none available
system.cpu.iq.fu_full::SimdAlu                      1      0.01%     13.57% # attempts to use FU when none available
system.cpu.iq.fu_full::SimdCmp                      2      0.02%     13.59% # attempts to use FU when none available
system.cpu.iq.fu_full::SimdCvt                      0      0.00%     13.59% # attempts to use FU when none available
system.cpu.iq.fu_full::SimdMisc                     0      0.00%     13.59% # attempts to use FU when none available
system.cpu.iq.fu_full::SimdMult                     0      0.00%     13.59% # attempts to use FU when none available
system.cpu.iq.fu_full::SimdMultAcc                  0      0.00%     13.59% # attempts to use FU when none available
system.cpu.iq.fu_full::SimdShift                    0      0.00%     13.59% # attempts to use FU when none available
system.cpu.iq.fu_full::SimdShiftAcc                 0      0.00%     13.59% # attempts to use FU when none available
system.cpu.iq.fu_full::SimdDiv                      0      0.00%     13.59% # attempts to use FU when none available
system.cpu.iq.fu_full::SimdSqrt                     0      0.00%     13.59% # attempts to use FU when none available
system.cpu.iq.fu_full::SimdFloatAdd                 0      0.00%     13.59% # attempts to use FU when none available
system.cpu.iq.fu_full::SimdFloatAlu                 0      0.00%     13.59% # attempts to use FU when none available
system.cpu.iq.fu_full::SimdFloatCmp                 0      0.00%     13.59% # attempts to use FU when none available
system.cpu.iq.fu_full::SimdFloatCvt                 0      0.00%     13.59% # attempts to use FU when none available
system.cpu.iq.fu_full::SimdFloatDiv                 0      0.00%     13.59% # attempts to use FU when none available
system.cpu.iq.fu_full::SimdFloatMisc                0      0.00%     13.59% # attempts to use FU when none available
system.cpu.iq.fu_full::SimdFloatMult                0      0.00%     13.59% # attempts to use FU when none available
system.cpu.iq.fu_full::SimdFloatMultAcc             0      0.00%     13.59% # attempts to use FU when none available
system.cpu.iq.fu_full::SimdFloatSqrt                0      0.00%     13.59% # attempts to use FU when none available
system.cpu.iq.fu_full::SimdReduceAdd                0      0.00%     13.59% # attempts to use FU when none available
system.cpu.iq.fu_full::SimdReduceAlu                0      0.00%     13.59% # attempts to use FU when none available
system.cpu.iq.fu_full::SimdReduceCmp                0      0.00%     13.59% # attempts to use FU when none available
system.cpu.iq.fu_full::SimdFloatReduceAdd            0      0.00%     13.59% # attempts to use FU when none available
system.cpu.iq.fu_full::SimdFloatReduceCmp            0      0.00%     13.59% # attempts to use FU when none available
system.cpu.iq.fu_full::SimdAes                      0      0.00%     13.59% # attempts to use FU when none available
system.cpu.iq.fu_full::SimdAesMix                   0      0.00%     13.59% # attempts to use FU when none available
system.cpu.iq.fu_full::SimdSha1Hash                 0      0.00%     13.59% # attempts to use FU when none available
system.cpu.iq.fu_full::SimdSha1Hash2                0      0.00%     13.59% # attempts to use FU when none available
system.cpu.iq.fu_full::SimdSha256Hash               0      0.00%     13.59% # attempts to use FU when none available
system.cpu.iq.fu_full::SimdSha256Hash2              0      0.00%     13.59% # attempts to use FU when none available
system.cpu.iq.fu_full::SimdShaSigma2                0      0.00%     13.59% # attempts to use FU when none available
system.cpu.iq.fu_full::SimdShaSigma3                0      0.00%     13.59% # attempts to use FU when none available
system.cpu.iq.fu_full::SimdPredAlu                  0      0.00%     13.59% # attempts to use FU when none available
system.cpu.iq.fu_full::MemRead                   3069     24.72%     38.31% # attempts to use FU when none available
system.cpu.iq.fu_full::MemWrite                  7657     61.69%    100.00% # attempts to use FU when none available
system.cpu.iq.fu_full::FloatMemRead                 0      0.00%    100.00% # attempts to use FU when none available
system.cpu.iq.fu_full::FloatMemWrite                0      0.00%    100.00% # attempts to use FU when none available
system.cpu.iq.fu_full::IprAccess                    0      0.00%    100.00% # attempts to use FU when none available
system.cpu.iq.fu_full::InstPrefetch                 0      0.00%    100.00% # attempts to use FU when none available
system.cpu.iq.int_alu_accesses                 640604                       # Number of integer alu accesses
system.cpu.iq.int_inst_queue_reads            1554116                       # Number of integer instruction queue reads
system.cpu.iq.int_inst_queue_wakeup_accesses       626100                       # Number of integer instruction queue wakeup accesses
system.cpu.iq.int_inst_queue_writes            642686                       # Number of integer instruction queue writes
system.cpu.iq.iqInstsAdded                     637585                       # Number of instructions added to the IQ (excludes non-spec)
system.cpu.iq.iqInstsIssued                    634599                       # Number of instructions issued
system.cpu.iq.iqNonSpecInstsAdded                  82                       # Number of non-speculative instructions added to the IQ
system.cpu.iq.iqSquashedInstsExamined           11485                       # Number of squashed instructions iterated over during squash; mainly for profiling
system.cpu.iq.iqSquashedInstsIssued               110                       # Number of squashed instructions issued
system.cpu.iq.iqSquashedNonSpecRemoved             22                       # Number of squashed non-spec instructions that were removed
system.cpu.iq.iqSquashedOperandsExamined         7413                       # Number of squashed operands that are examined and possibly removed from graph
system.cpu.iq.issued_per_cycle::samples        285163                       # Number of insts issued each cycle
system.cpu.iq.issued_per_cycle::mean         2.225390                       # Number of insts issued each cycle
system.cpu.iq.issued_per_cycle::stdev        2.598123                       # Number of insts issued each cycle
system.cpu.iq.issued_per_cycle::underflows            0      0.00%      0.00% # Number of insts issued each cycle
system.cpu.iq.issued_per_cycle::0              124151     43.54%     43.54% # Number of insts issued each cycle
system.cpu.iq.issued_per_cycle::1               26290      9.22%     52.76% # Number of insts issued each cycle
system.cpu.iq.issued_per_cycle::2               30288     10.62%     63.38% # Number of insts issued each cycle
system.cpu.iq.issued_per_cycle::3               23881      8.37%     71.75% # Number of insts issued each cycle
system.cpu.iq.issued_per_cycle::4               15459      5.42%     77.17% # Number of insts issued each cycle
system.cpu.iq.issued_per_cycle::5               20787      7.29%     84.46% # Number of insts issued each cycle
system.cpu.iq.issued_per_cycle::6               17080      5.99%     90.45% # Number of insts issued each cycle
system.cpu.iq.issued_per_cycle::7                9977      3.50%     93.95% # Number of insts issued each cycle
system.cpu.iq.issued_per_cycle::8               17250      6.05%    100.00% # Number of insts issued each cycle
system.cpu.iq.issued_per_cycle::overflows            0      0.00%    100.00% # Number of insts issued each cycle
system.cpu.iq.issued_per_cycle::min_value            0                       # Number of insts issued each cycle
system.cpu.iq.issued_per_cycle::max_value            8                       # Number of insts issued each cycle
system.cpu.iq.issued_per_cycle::total          285163                       # Number of insts issued each cycle
system.cpu.iq.rate                           1.850413                       # Inst issue rate
system.cpu.iq.vec_alu_accesses                   6402                       # Number of vector alu accesses
system.cpu.iq.vec_inst_queue_reads              12761                       # Number of vector instruction queue reads
system.cpu.iq.vec_inst_queue_wakeup_accesses         6318                       # Number of vector instruction queue wakeup accesses
system.cpu.iq.vec_inst_queue_writes              6504                       # Number of vector instruction queue writes
system.cpu.itb.accesses                             0                       # DTB accesses
system.cpu.itb.align_faults                         0                       # Number of TLB faults due to alignment restrictions
system.cpu.itb.domain_faults                        0                       # Number of TLB faults due to domain restrictions
system.cpu.itb.flush_entries                        0                       # Number of entries that have been flushed from TLB
system.cpu.itb.flush_tlb                            0                       # Number of times complete TLB was flushed
system.cpu.itb.flush_tlb_asid                       0                       # Number of times TLB was flushed by ASID
system.cpu.itb.flush_tlb_mva                        0                       # Number of times TLB was flushed by MVA
system.cpu.itb.flush_tlb_mva_asid                   0                       # Number of times TLB was flushed by MVA & ASID
system.cpu.itb.hits                                 0                       # DTB hits
system.cpu.itb.inst_accesses                        0                       # ITB inst accesses
system.cpu.itb.inst_hits                            0                       # ITB inst hits
system.cpu.itb.inst_misses                          0                       # ITB inst misses
system.cpu.itb.misses                               0                       # DTB misses
system.cpu.itb.perms_faults                         0                       # Number of TLB faults due to permissions restrictions
system.cpu.itb.prefetch_faults                      0                       # Number of TLB faults due to prefetch
system.cpu.itb.read_accesses                        0                       # DTB read accesses
system.cpu.itb.read_hits                            0                       # DTB read hits
system.cpu.itb.read_misses                          0                       # DTB read misses
system.cpu.itb.stage2_mmu.stage2_tlb.accesses            0                       # DTB accesses
system.cpu.itb.stage2_mmu.stage2_tlb.align_faults            0                       # Number of TLB faults due to alignment restrictions
system.cpu.itb.stage2_mmu.stage2_tlb.domain_faults            0                       # Number of TLB faults due to domain restrictions
system.cpu.itb.stage2_mmu.stage2_tlb.flush_entries            0                       # Number of entries that have been flushed from TLB
system.cpu.itb.stage2_mmu.stage2_tlb.flush_tlb            0                       # Number of times complete TLB was flushed
system.cpu.itb.stage2_mmu.stage2_tlb.flush_tlb_asid            0                       # Number of times TLB was flushed by ASID
system.cpu.itb.stage2_mmu.stage2_tlb.flush_tlb_mva            0                       # Number of times TLB was flushed by MVA
system.cpu.itb.stage2_mmu.stage2_tlb.flush_tlb_mva_asid            0                       # Number of times TLB was flushed by MVA & ASID
system.cpu.itb.stage2_mmu.stage2_tlb.hits            0                       # DTB hits
system.cpu.itb.stage2_mmu.stage2_tlb.inst_accesses            0                       # ITB inst accesses
system.cpu.itb.stage2_mmu.stage2_tlb.inst_hits            0                       # ITB inst hits
system.cpu.itb.stage2_mmu.stage2_tlb.inst_misses            0                       # ITB inst misses
system.cpu.itb.stage2_mmu.stage2_tlb.misses            0                       # DTB misses
system.cpu.itb.stage2_mmu.stage2_tlb.perms_faults            0                       # Number of TLB faults due to permissions restrictions
system.cpu.itb.stage2_mmu.stage2_tlb.prefetch_faults            0                       # Number of TLB faults due to prefetch
system.cpu.itb.stage2_mmu.stage2_tlb.read_accesses            0                       # DTB read accesses
system.cpu.itb.stage2_mmu.stage2_tlb.read_hits            0                       # DTB read hits
system.cpu.itb.stage2_mmu.stage2_tlb.read_misses            0                       # DTB read misses
system.cpu.itb.stage2_mmu.stage2_tlb.walker.walkRequestOrigin_Requested::Data            0                       # Table walker requests started/completed, data/inst
system.cpu.itb.stage2_mmu.stage2_tlb.walker.walkRequestOrigin_Requested::Inst            0                       # Table walker requests started/completed, data/inst
system.cpu.itb.stage2_mmu.stage2_tlb.walker.walkRequestOrigin_Requested::total            0                       # Table walker requests started/completed, data/inst
system.cpu.itb.stage2_mmu.stage2_tlb.walker.walkRequestOrigin_Completed::Data            0                       # Table walker requests started/completed, data/inst
system.cpu.itb.stage2_mmu.stage2_tlb.walker.walkRequestOrigin_Completed::Inst            0                       # Table walker requests started/completed, data/inst
system.cpu.itb.stage2_mmu.stage2_tlb.walker.walkRequestOrigin_Completed::total            0                       # Table walker requests started/completed, data/inst
system.cpu.itb.stage2_mmu.stage2_tlb.walker.walkRequestOrigin::total            0                       # Table walker requests started/completed, data/inst
system.cpu.itb.stage2_mmu.stage2_tlb.walker.walks            0                       # Table walker walks requested
system.cpu.itb.stage2_mmu.stage2_tlb.write_accesses            0                       # DTB write accesses
system.cpu.itb.stage2_mmu.stage2_tlb.write_hits            0                       # DTB write hits
system.cpu.itb.stage2_mmu.stage2_tlb.write_misses            0                       # DTB write misses
system.cpu.itb.walker.walkRequestOrigin_Requested::Data            0                       # Table walker requests started/completed, data/inst
system.cpu.itb.walker.walkRequestOrigin_Requested::Inst            0                       # Table walker requests started/completed, data/inst
system.cpu.itb.walker.walkRequestOrigin_Requested::total            0                       # Table walker requests started/completed, data/inst
system.cpu.itb.walker.walkRequestOrigin_Completed::Data            0                       # Table walker requests started/completed, data/inst
system.cpu.itb.walker.walkRequestOrigin_Completed::Inst            0                       # Table walker requests started/completed, data/inst
system.cpu.itb.walker.walkRequestOrigin_Completed::total            0                       # Table walker requests started/completed, data/inst
system.cpu.itb.walker.walkRequestOrigin::total            0                       # Table walker requests started/completed, data/inst
system.cpu.itb.walker.walks                         0                       # Table walker walks requested
system.cpu.itb.write_accesses                       0                       # DTB write accesses
system.cpu.itb.write_hits                           0                       # DTB write hits
system.cpu.itb.write_misses                         0                       # DTB write misses
system.cpu.memDep0.conflictingLoads               146                       # Number of conflicting loads.
system.cpu.memDep0.conflictingStores             1608                       # Number of conflicting stores.
system.cpu.memDep0.insertedLoads               101450                       # Number of loads inserted to the mem dependence unit.
system.cpu.memDep0.insertedStores              116124                       # Number of stores inserted to the mem dependence unit.
system.cpu.misc_regfile_reads                  442902                       # number of misc regfile reads
system.cpu.misc_regfile_writes                   4659                       # number of misc regfile writes
system.cpu.numCycles                           342950                       # number of cpu cycles simulated
system.cpu.numWorkItemsCompleted                    0                       # number of work items this cpu completed
system.cpu.numWorkItemsStarted                      0                       # number of work items this cpu started
system.cpu.rename.BlockCycles                    1781                       # Number of cycles rename is blocking
system.cpu.rename.CommittedMaps                593543                       # Number of HB maps that are committed
system.cpu.rename.IQFullEvents                     72                       # Number of times rename has blocked due to IQ full
system.cpu.rename.IdleCycles                    44354                       # Number of cycles rename is idle
system.cpu.rename.LQFullEvents                      1                       # Number of times rename has blocked due to LQ full
system.cpu.rename.RenameLookups                951476                       # Number of register rename lookups that rename has made
system.cpu.rename.RenamedInsts                 640302                       # Number of instructions processed by rename
system.cpu.rename.RenamedOperands              607705                       # Number of destination operands rename has renamed
system.cpu.rename.RunCycles                     82434                       # Number of cycles rename is running
system.cpu.rename.SQFullEvents                   1047                       # Number of times rename has blocked due to SQ full
system.cpu.rename.SquashCycles                    729                       # Number of cycles rename is squashing
system.cpu.rename.UnblockCycles                 16162                       # Number of cycles rename is unblocking
system.cpu.rename.UndoneMaps                    14130                       # Number of HB maps that are undone due to squashing
system.cpu.rename.int_rename_lookups           756653                       # Number of integer rename lookups
system.cpu.rename.serializeStallCycles         139703                       # count of cycles rename stalled for serializing inst
system.cpu.rename.serializingInsts               9112                       # count of serializing insts renamed
system.cpu.rename.skidInsts                     77487                       # count of insts added to the skid buffer
system.cpu.rename.tempSerializingInsts             84                       # count of temporary serializing insts renamed
system.cpu.rename.vec_rename_lookups             7954                       # Number of vector rename lookups
system.cpu.rob.rob_reads                       873849                       # The number of ROB reads
system.cpu.rob.rob_writes                     1277088                       # The number of ROB writes
system.cpu.timesIdled                             543                       # Number of times that the entire CPU went into an idle state and unscheduled itself
system.cpu.vec_regfile_reads                     7849                       # number of vector regfile reads
system.cpu.vec_regfile_writes                    4579                       # number of vector regfile writes
system.cpu.workload.numSyscalls                    13                       # Number of system calls
system.membus.snoop_filter.hit_multi_requests            0                       # Number of requests hitting in the snoop filter with multiple (>1) holders of the requested data.
system.membus.snoop_filter.hit_multi_snoops            0                       # Number of snoops hitting in the snoop filter with multiple (>1) holders of the requested data.
system.membus.snoop_filter.hit_single_requests            0                       # Number of requests hitting in the snoop filter with a single holder of the requested data.
system.membus.snoop_filter.hit_single_snoops            0                       # Number of snoops hitting in the snoop filter with a single holder of the requested data.
system.membus.snoop_filter.tot_requests           965                       # Total number of requests made to the snoop filter.
system.membus.snoop_filter.tot_snoops               0                       # Total number of snoops made to the snoop filter.
system.tol2bus.snoop_filter.hit_multi_requests            0                       # Number of requests hitting in the snoop filter with multiple (>1) holders of the requested data.
system.tol2bus.snoop_filter.hit_multi_snoops            0                       # Number of snoops hitting in the snoop filter with multiple (>1) holders of the requested data.
system.tol2bus.snoop_filter.hit_single_requests          354                       # Number of requests hitting in the snoop filter with a single holder of the requested data.
system.tol2bus.snoop_filter.hit_single_snoops            0                       # Number of snoops hitting in the snoop filter with a single holder of the requested data.
system.tol2bus.snoop_filter.tot_requests         1405                       # Total number of requests made to the snoop filter.
system.tol2bus.snoop_filter.tot_snoops              0                       # Total number of snoops made to the snoop filter.
system.membus.trans_dist::ReadResp                817                       # Transaction distribution
system.membus.trans_dist::ReadExReq               138                       # Transaction distribution
system.membus.trans_dist::ReadExResp              138                       # Transaction distribution
system.membus.trans_dist::ReadSharedReq           817                       # Transaction distribution
system.membus.trans_dist::InvalidateReq            10                       # Transaction distribution
system.membus.pkt_count_system.l2.mem_side::system.mem_ctrls.port         1920                       # Packet count per connected master and slave (bytes)
system.membus.pkt_count::total                   1920                       # Packet count per connected master and slave (bytes)
system.membus.pkt_size_system.l2.mem_side::system.mem_ctrls.port        61120                       # Cumulative packet size per connected master and slave (bytes)
system.membus.pkt_size::total                   61120                       # Cumulative packet size per connected master and slave (bytes)
system.membus.snoops                                0                       # Total snoops (count)
system.membus.snoopTraffic                          0                       # Total snoop traffic (bytes)
system.membus.snoop_fanout::samples               965                       # Request fanout histogram
system.membus.snoop_fanout::mean                    0                       # Request fanout histogram
system.membus.snoop_fanout::stdev                   0                       # Request fanout histogram
system.membus.snoop_fanout::underflows              0      0.00%      0.00% # Request fanout histogram
system.membus.snoop_fanout::0                     965    100.00%    100.00% # Request fanout histogram
system.membus.snoop_fanout::1                       0      0.00%    100.00% # Request fanout histogram
system.membus.snoop_fanout::overflows               0      0.00%    100.00% # Request fanout histogram
system.membus.snoop_fanout::min_value               0                       # Request fanout histogram
system.membus.snoop_fanout::max_value               0                       # Request fanout histogram
system.membus.snoop_fanout::total                 965                       # Request fanout histogram
system.membus.reqLayer0.occupancy             1192000                       # Layer occupancy (ticks)
system.membus.reqLayer0.utilization               0.7                       # Layer utilization (%)
system.membus.respLayer1.occupancy            5058250                       # Layer occupancy (ticks)
system.membus.respLayer1.utilization              2.9                       # Layer utilization (%)
system.membus.power_state.pwrStateResidencyTicks::UNDEFINED    171474500                       # Cumulative time (in ticks) in various power states
system.tol2bus.trans_dist::ReadResp               903                       # Transaction distribution
system.tol2bus.trans_dist::WritebackDirty           16                       # Transaction distribution
system.tol2bus.trans_dist::WritebackClean          328                       # Transaction distribution
system.tol2bus.trans_dist::CleanEvict               9                       # Transaction distribution
system.tol2bus.trans_dist::ReadExReq              139                       # Transaction distribution
system.tol2bus.trans_dist::ReadExResp             139                       # Transaction distribution
system.tol2bus.trans_dist::ReadCleanReq           789                       # Transaction distribution
system.tol2bus.trans_dist::ReadSharedReq          114                       # Transaction distribution
system.tol2bus.trans_dist::InvalidateReq           10                       # Transaction distribution
system.tol2bus.trans_dist::InvalidateResp           10                       # Transaction distribution
system.tol2bus.pkt_count_system.cpu.icache.mem_side::system.l2.cpu_side         1906                       # Packet count per connected master and slave (bytes)
system.tol2bus.pkt_count_system.cpu.dcache.mem_side::system.l2.cpu_side          551                       # Packet count per connected master and slave (bytes)
system.tol2bus.pkt_count::total                  2457                       # Packet count per connected master and slave (bytes)
system.tol2bus.pkt_size_system.cpu.icache.mem_side::system.l2.cpu_side        71488                       # Cumulative packet size per connected master and slave (bytes)
system.tol2bus.pkt_size_system.cpu.dcache.mem_side::system.l2.cpu_side        17216                       # Cumulative packet size per connected master and slave (bytes)
system.tol2bus.pkt_size::total                  88704                       # Cumulative packet size per connected master and slave (bytes)
system.tol2bus.snoops                               0                       # Total snoops (count)
system.tol2bus.snoopTraffic                         0                       # Total snoop traffic (bytes)
system.tol2bus.snoop_fanout::samples             1052                       # Request fanout histogram
system.tol2bus.snoop_fanout::mean            0.000951                       # Request fanout histogram
system.tol2bus.snoop_fanout::stdev           0.030831                       # Request fanout histogram
system.tol2bus.snoop_fanout::underflows             0      0.00%      0.00% # Request fanout histogram
system.tol2bus.snoop_fanout::0                   1051     99.90%     99.90% # Request fanout histogram
system.tol2bus.snoop_fanout::1                      1      0.10%    100.00% # Request fanout histogram
system.tol2bus.snoop_fanout::2                      0      0.00%    100.00% # Request fanout histogram
system.tol2bus.snoop_fanout::overflows              0      0.00%    100.00% # Request fanout histogram
system.tol2bus.snoop_fanout::min_value              0                       # Request fanout histogram
system.tol2bus.snoop_fanout::max_value              1                       # Request fanout histogram
system.tol2bus.snoop_fanout::total               1052                       # Request fanout histogram
system.tol2bus.reqLayer0.occupancy            1046500                       # Layer occupancy (ticks)
system.tol2bus.reqLayer0.utilization              0.6                       # Layer utilization (%)
system.tol2bus.respLayer1.occupancy            384500                       # Layer occupancy (ticks)
system.tol2bus.respLayer1.utilization             0.2                       # Layer utilization (%)
system.tol2bus.respLayer0.occupancy           1183500                       # Layer occupancy (ticks)
system.tol2bus.respLayer0.utilization             0.7                       # Layer utilization (%)
system.tol2bus.power_state.pwrStateResidencyTicks::UNDEFINED    171474500                       # Cumulative time (in ticks) in various power states
system.voltage_domain.voltage                       1                       # Voltage in Volts
system.clk_domain.clock                          1000                       # Clock period in ticks
system.l2.demand_hits::.cpu.inst                   86                       # number of demand (read+write) hits
system.l2.demand_hits::.cpu.data                    1                       # number of demand (read+write) hits
system.l2.demand_hits::total                       87                       # number of demand (read+write) hits
system.l2.overall_hits::.cpu.inst                  86                       # number of overall hits
system.l2.overall_hits::.cpu.data                   1                       # number of overall hits
system.l2.overall_hits::total                      87                       # number of overall hits
system.l2.demand_misses::.cpu.inst                703                       # number of demand (read+write) misses
system.l2.demand_misses::.cpu.data                252                       # number of demand (read+write) misses
system.l2.demand_misses::total                    955                       # number of demand (read+write) misses
system.l2.overall_misses::.cpu.inst               703                       # number of overall misses
system.l2.overall_misses::.cpu.data               252                       # number of overall misses
system.l2.overall_misses::total                   955                       # number of overall misses
system.l2.demand_miss_latency::.cpu.inst     55749500                       # number of demand (read+write) miss cycles
system.l2.demand_miss_latency::.cpu.data     21096500                       # number of demand (read+write) miss cycles
system.l2.demand_miss_latency::total         76846000                       # number of demand (read+write) miss cycles
system.l2.overall_miss_latency::.cpu.inst     55749500                       # number of overall miss cycles
system.l2.overall_miss_latency::.cpu.data     21096500                       # number of overall miss cycles
system.l2.overall_miss_latency::total        76846000                       # number of overall miss cycles
system.l2.demand_accesses::.cpu.inst              789                       # number of demand (read+write) accesses
system.l2.demand_accesses::.cpu.data              253                       # number of demand (read+write) accesses
system.l2.demand_accesses::total                 1042                       # number of demand (read+write) accesses
system.l2.overall_accesses::.cpu.inst             789                       # number of overall (read+write) accesses
system.l2.overall_accesses::.cpu.data             253                       # number of overall (read+write) accesses
system.l2.overall_accesses::total                1042                       # number of overall (read+write) accesses
system.l2.demand_miss_rate::.cpu.inst        0.891001                       # miss rate for demand accesses
system.l2.demand_miss_rate::.cpu.data        0.996047                       # miss rate for demand accesses
system.l2.demand_miss_rate::total            0.916507                       # miss rate for demand accesses
system.l2.overall_miss_rate::.cpu.inst       0.891001                       # miss rate for overall accesses
system.l2.overall_miss_rate::.cpu.data       0.996047                       # miss rate for overall accesses
system.l2.overall_miss_rate::total           0.916507                       # miss rate for overall accesses
system.l2.demand_avg_miss_latency::.cpu.inst 79302.275960                       # average overall miss latency
system.l2.demand_avg_miss_latency::.cpu.data 83716.269841                       # average overall miss latency
system.l2.demand_avg_miss_latency::total 80467.015707                       # average overall miss latency
system.l2.overall_avg_miss_latency::.cpu.inst 79302.275960                       # average overall miss latency
system.l2.overall_avg_miss_latency::.cpu.data 83716.269841                       # average overall miss latency
system.l2.overall_avg_miss_latency::total 80467.015707                       # average overall miss latency
system.l2.blocked_cycles::no_mshrs                  0                       # number of cycles access was blocked
system.l2.blocked_cycles::no_targets                0                       # number of cycles access was blocked
system.l2.blocked::no_mshrs                         0                       # number of cycles access was blocked
system.l2.blocked::no_targets                       0                       # number of cycles access was blocked
system.l2.avg_blocked_cycles::no_mshrs            nan                       # average number of cycles each access was blocked
system.l2.avg_blocked_cycles::no_targets          nan                       # average number of cycles each access was blocked
system.l2.demand_mshr_misses::.cpu.inst           703                       # number of demand (read+write) MSHR misses
system.l2.demand_mshr_misses::.cpu.data           252                       # number of demand (read+write) MSHR misses
system.l2.demand_mshr_misses::total               955                       # number of demand (read+write) MSHR misses
system.l2.overall_mshr_misses::.cpu.inst          703                       # number of overall MSHR misses
system.l2.overall_mshr_misses::.cpu.data          252                       # number of overall MSHR misses
system.l2.overall_mshr_misses::total              955                       # number of overall MSHR misses
system.l2.demand_mshr_miss_latency::.cpu.inst     48719500                       # number of demand (read+write) MSHR miss cycles
system.l2.demand_mshr_miss_latency::.cpu.data     18576500                       # number of demand (read+write) MSHR miss cycles
system.l2.demand_mshr_miss_latency::total     67296000                       # number of demand (read+write) MSHR miss cycles
system.l2.overall_mshr_miss_latency::.cpu.inst     48719500                       # number of overall MSHR miss cycles
system.l2.overall_mshr_miss_latency::.cpu.data     18576500                       # number of overall MSHR miss cycles
system.l2.overall_mshr_miss_latency::total     67296000                       # number of overall MSHR miss cycles
system.l2.demand_mshr_miss_rate::.cpu.inst     0.891001                       # mshr miss rate for demand accesses
system.l2.demand_mshr_miss_rate::.cpu.data     0.996047                       # mshr miss rate for demand accesses
system.l2.demand_mshr_miss_rate::total       0.916507                       # mshr miss rate for demand accesses
system.l2.overall_mshr_miss_rate::.cpu.inst     0.891001                       # mshr miss rate for overall accesses
system.l2.overall_mshr_miss_rate::.cpu.data     0.996047                       # mshr miss rate for overall accesses
system.l2.overall_mshr_miss_rate::total      0.916507                       # mshr miss rate for overall accesses
system.l2.demand_avg_mshr_miss_latency::.cpu.inst 69302.275960                       # average overall mshr miss latency
system.l2.demand_avg_mshr_miss_latency::.cpu.data 73716.269841                       # average overall mshr miss latency
system.l2.demand_avg_mshr_miss_latency::total 70467.015707                       # average overall mshr miss latency
system.l2.overall_avg_mshr_miss_latency::.cpu.inst 69302.275960                       # average overall mshr miss latency
system.l2.overall_avg_mshr_miss_latency::.cpu.data 73716.269841                       # average overall mshr miss latency
system.l2.overall_avg_mshr_miss_latency::total 70467.015707                       # average overall mshr miss latency
system.l2.replacements                              0                       # number of replacements
system.l2.WritebackDirty_hits::.writebacks           16                       # number of WritebackDirty hits
system.l2.WritebackDirty_hits::total               16                       # number of WritebackDirty hits
system.l2.WritebackDirty_accesses::.writebacks           16                       # number of WritebackDirty accesses(hits+misses)
system.l2.WritebackDirty_accesses::total           16                       # number of WritebackDirty accesses(hits+misses)
system.l2.WritebackClean_hits::.writebacks          328                       # number of WritebackClean hits
system.l2.WritebackClean_hits::total              328                       # number of WritebackClean hits
system.l2.WritebackClean_accesses::.writebacks          328                       # number of WritebackClean accesses(hits+misses)
system.l2.WritebackClean_accesses::total          328                       # number of WritebackClean accesses(hits+misses)
system.l2.ReadExReq_hits::.cpu.data                 1                       # number of ReadExReq hits
system.l2.ReadExReq_hits::total                     1                       # number of ReadExReq hits
system.l2.ReadExReq_misses::.cpu.data             138                       # number of ReadExReq misses
system.l2.ReadExReq_misses::total                 138                       # number of ReadExReq misses
system.l2.ReadExReq_miss_latency::.cpu.data     11167000                       # number of ReadExReq miss cycles
system.l2.ReadExReq_miss_latency::total      11167000                       # number of ReadExReq miss cycles
system.l2.ReadExReq_accesses::.cpu.data           139                       # number of ReadExReq accesses(hits+misses)
system.l2.ReadExReq_accesses::total               139                       # number of ReadExReq accesses(hits+misses)
system.l2.ReadExReq_miss_rate::.cpu.data     0.992806                       # miss rate for ReadExReq accesses
system.l2.ReadExReq_miss_rate::total         0.992806                       # miss rate for ReadExReq accesses
system.l2.ReadExReq_avg_miss_latency::.cpu.data 80920.289855                       # average ReadExReq miss latency
system.l2.ReadExReq_avg_miss_latency::total 80920.289855                       # average ReadExReq miss latency
system.l2.ReadExReq_mshr_misses::.cpu.data          138                       # number of ReadExReq MSHR misses
system.l2.ReadExReq_mshr_misses::total            138                       # number of ReadExReq MSHR misses
system.l2.ReadExReq_mshr_miss_latency::.cpu.data      9787000                       # number of ReadExReq MSHR miss cycles
system.l2.ReadExReq_mshr_miss_latency::total      9787000                       # number of ReadExReq MSHR miss cycles
system.l2.ReadExReq_mshr_miss_rate::.cpu.data     0.992806                       # mshr miss rate for ReadExReq accesses
system.l2.ReadExReq_mshr_miss_rate::total     0.992806                       # mshr miss rate for ReadExReq accesses
system.l2.ReadExReq_avg_mshr_miss_latency::.cpu.data 70920.289855                       # average ReadExReq mshr miss latency
system.l2.ReadExReq_avg_mshr_miss_latency::total 70920.289855                       # average ReadExReq mshr miss latency
system.l2.ReadCleanReq_hits::.cpu.inst             86                       # number of ReadCleanReq hits
system.l2.ReadCleanReq_hits::total                 86                       # number of ReadCleanReq hits
system.l2.ReadCleanReq_misses::.cpu.inst          703                       # number of ReadCleanReq misses
system.l2.ReadCleanReq_misses::total              703                       # number of ReadCleanReq misses
system.l2.ReadCleanReq_miss_latency::.cpu.inst     55749500                       # number of ReadCleanReq miss cycles
system.l2.ReadCleanReq_miss_latency::total     55749500                       # number of ReadCleanReq miss cycles
system.l2.ReadCleanReq_accesses::.cpu.inst          789                       # number of ReadCleanReq accesses(hits+misses)
system.l2.ReadCleanReq_accesses::total            789                       # number of ReadCleanReq accesses(hits+misses)
system.l2.ReadCleanReq_miss_rate::.cpu.inst     0.891001                       # miss rate for ReadCleanReq accesses
system.l2.ReadCleanReq_miss_rate::total      0.891001                       # miss rate for ReadCleanReq accesses
system.l2.ReadCleanReq_avg_miss_latency::.cpu.inst 79302.275960                       # average ReadCleanReq miss latency
system.l2.ReadCleanReq_avg_miss_latency::total 79302.275960                       # average ReadCleanReq miss latency
system.l2.ReadCleanReq_mshr_misses::.cpu.inst          703                       # number of ReadCleanReq MSHR misses
system.l2.ReadCleanReq_mshr_misses::total          703                       # number of ReadCleanReq MSHR misses
system.l2.ReadCleanReq_mshr_miss_latency::.cpu.inst     48719500                       # number of ReadCleanReq MSHR miss cycles
system.l2.ReadCleanReq_mshr_miss_latency::total     48719500                       # number of ReadCleanReq MSHR miss cycles
system.l2.ReadCleanReq_mshr_miss_rate::.cpu.inst     0.891001                       # mshr miss rate for ReadCleanReq accesses
system.l2.ReadCleanReq_mshr_miss_rate::total     0.891001                       # mshr miss rate for ReadCleanReq accesses
system.l2.ReadCleanReq_avg_mshr_miss_latency::.cpu.inst 69302.275960                       # average ReadCleanReq mshr miss latency
system.l2.ReadCleanReq_avg_mshr_miss_latency::total 69302.275960                       # average ReadCleanReq mshr miss latency
system.l2.ReadSharedReq_misses::.cpu.data          114                       # number of ReadSharedReq misses
[...]
system.cpu.dcache.demand_miss_latency::total     60406455                       # number of demand (read+write) miss cycles
system.cpu.dcache.overall_miss_latency::.cpu.data     60406455                       # number of overall miss cycles
system.cpu.dcache.overall_miss_latency::total     60406455                       # number of overall miss cycles
system.cpu.dcache.demand_accesses::.cpu.data       215300                       # number of demand (read+write) accesses
system.cpu.dcache.demand_accesses::total       215300                       # number of demand (read+write) accesses
system.cpu.dcache.overall_accesses::.cpu.data       215310                       # number of overall (read+write) accesses
system.cpu.dcache.overall_accesses::total       215310                       # number of overall (read+write) accesses
system.cpu.dcache.demand_miss_rate::.cpu.data     0.003976                       # miss rate for demand accesses
system.cpu.dcache.demand_miss_rate::total     0.003976                       # miss rate for demand accesses
system.cpu.dcache.overall_miss_rate::.cpu.data     0.003985                       # miss rate for overall accesses
system.cpu.dcache.overall_miss_rate::total     0.003985                       # miss rate for overall accesses
system.cpu.dcache.demand_avg_miss_latency::.cpu.data 70568.288551                       # average overall miss latency
system.cpu.dcache.demand_avg_miss_latency::total 70568.288551                       # average overall miss latency
system.cpu.dcache.overall_avg_miss_latency::.cpu.data 70403.793706                       # average overall miss latency
system.cpu.dcache.overall_avg_miss_latency::total 70403.793706                       # average overall miss latency
system.cpu.dcache.blocked_cycles::no_mshrs         2763                       # number of cycles access was blocked
system.cpu.dcache.blocked_cycles::no_targets            0                       # number of cycles access was blocked
system.cpu.dcache.blocked::no_mshrs                62                       # number of cycles access was blocked
system.cpu.dcache.blocked::no_targets               0                       # number of cycles access was blocked
system.cpu.dcache.avg_blocked_cycles::no_mshrs    44.564516                       # average number of cycles each access was blocked
system.cpu.dcache.avg_blocked_cycles::no_targets          nan                       # average number of cycles each access was blocked
system.cpu.dcache.writebacks::.writebacks           16                       # number of writebacks
system.cpu.dcache.writebacks::total                16                       # number of writebacks
system.cpu.dcache.demand_mshr_hits::.cpu.data          596                       # number of demand (read+write) MSHR hits
system.cpu.dcache.demand_mshr_hits::total          596                       # number of demand (read+write) MSHR hits
system.cpu.dcache.overall_mshr_hits::.cpu.data          596                       # number of overall MSHR hits
system.cpu.dcache.overall_mshr_hits::total          596                       # number of overall MSHR hits
system.cpu.dcache.demand_mshr_misses::.cpu.data          260                       # number of demand (read+write) MSHR misses
system.cpu.dcache.demand_mshr_misses::total          260                       # number of demand (read+write) MSHR misses
system.cpu.dcache.overall_mshr_misses::.cpu.data          262                       # number of overall MSHR misses
system.cpu.dcache.overall_mshr_misses::total          262                       # number of overall MSHR misses
system.cpu.dcache.demand_mshr_miss_latency::.cpu.data     21543995                       # number of demand (read+write) MSHR miss cycles
system.cpu.dcache.demand_mshr_miss_latency::total     21543995                       # number of demand (read+write) MSHR miss cycles
system.cpu.dcache.overall_mshr_miss_latency::.cpu.data     21728495                       # number of overall MSHR miss cycles
system.cpu.dcache.overall_mshr_miss_latency::total     21728495                       # number of overall MSHR miss cycles
system.cpu.dcache.demand_mshr_miss_rate::.cpu.data     0.001208                       # mshr miss rate for demand accesses
system.cpu.dcache.demand_mshr_miss_rate::total     0.001208                       # mshr miss rate for demand accesses
system.cpu.dcache.overall_mshr_miss_rate::.cpu.data     0.001217                       # mshr miss rate for overall accesses
system.cpu.dcache.overall_mshr_miss_rate::total     0.001217                       # mshr miss rate for overall accesses
system.cpu.dcache.demand_avg_mshr_miss_latency::.cpu.data 82861.519231                       # average overall mshr miss latency
system.cpu.dcache.demand_avg_mshr_miss_latency::total 82861.519231                       # average overall mshr miss latency
system.cpu.dcache.overall_avg_mshr_miss_latency::.cpu.data 82933.187023                       # average overall mshr miss latency
system.cpu.dcache.overall_avg_mshr_miss_latency::total 82933.187023                       # average overall mshr miss latency
system.cpu.dcache.replacements                     25                       # number of replacements
system.cpu.dcache.ReadReq_hits::.cpu.data       100412                       # number of ReadReq hits
system.cpu.dcache.ReadReq_hits::total          100412                       # number of ReadReq hits
system.cpu.dcache.ReadReq_misses::.cpu.data          226                       # number of ReadReq misses
system.cpu.dcache.ReadReq_misses::total           226                       # number of ReadReq misses
system.cpu.dcache.ReadReq_miss_latency::.cpu.data     18373000                       # number of ReadReq miss cycles
system.cpu.dcache.ReadReq_miss_latency::total     18373000                       # number of ReadReq miss cycles
system.cpu.dcache.ReadReq_accesses::.cpu.data       100638                       # number of ReadReq accesses(hits+misses)
system.cpu.dcache.ReadReq_accesses::total       100638                       # number of ReadReq accesses(hits+misses)
system.cpu.dcache.ReadReq_miss_rate::.cpu.data     0.002246                       # miss rate for ReadReq accesses
system.cpu.dcache.ReadReq_miss_rate::total     0.002246                       # miss rate for ReadReq accesses
system.cpu.dcache.ReadReq_avg_miss_latency::.cpu.data 81296.460177                       # average ReadReq miss latency
system.cpu.dcache.ReadReq_avg_miss_latency::total 81296.460177                       # average ReadReq miss latency
system.cpu.dcache.ReadReq_mshr_hits::.cpu.data          115                       # number of ReadReq MSHR hits
system.cpu.dcache.ReadReq_mshr_hits::total          115                       # number of ReadReq MSHR hits
system.cpu.dcache.ReadReq_mshr_misses::.cpu.data          111                       # number of ReadReq MSHR misses
system.cpu.dcache.ReadReq_mshr_misses::total          111                       # number of ReadReq MSHR misses
system.cpu.dcache.ReadReq_mshr_miss_latency::.cpu.data      9846000                       # number of ReadReq MSHR miss cycles
system.cpu.dcache.ReadReq_mshr_miss_latency::total      9846000                       # number of ReadReq MSHR miss cycles
system.cpu.dcache.ReadReq_mshr_miss_rate::.cpu.data     0.001103                       # mshr miss rate for ReadReq accesses
system.cpu.dcache.ReadReq_mshr_miss_rate::total     0.001103                       # mshr miss rate for ReadReq accesses
system.cpu.dcache.ReadReq_avg_mshr_miss_latency::.cpu.data 88702.702703                       # average ReadReq mshr miss latency
system.cpu.dcache.ReadReq_avg_mshr_miss_latency::total 88702.702703                       # average ReadReq mshr miss latency
system.cpu.dcache.WriteReq_hits::.cpu.data       114032                       # number of WriteReq hits
system.cpu.dcache.WriteReq_hits::total         114032                       # number of WriteReq hits
system.cpu.dcache.WriteReq_misses::.cpu.data          623                       # number of WriteReq misses
system.cpu.dcache.WriteReq_misses::total          623                       # number of WriteReq misses
system.cpu.dcache.WriteReq_miss_latency::.cpu.data     41810957                       # number of WriteReq miss cycles
system.cpu.dcache.WriteReq_miss_latency::total     41810957                       # number of WriteReq miss cycles
system.cpu.dcache.WriteReq_accesses::.cpu.data       114655                       # number of WriteReq accesses(hits+misses)
system.cpu.dcache.WriteReq_accesses::total       114655                       # number of WriteReq accesses(hits+misses)
system.cpu.dcache.WriteReq_miss_rate::.cpu.data     0.005434                       # miss rate for WriteReq accesses
system.cpu.dcache.WriteReq_miss_rate::total     0.005434                       # miss rate for WriteReq accesses
system.cpu.dcache.WriteReq_avg_miss_latency::.cpu.data 67112.290530                       # average WriteReq miss latency
system.cpu.dcache.WriteReq_avg_miss_latency::total 67112.290530                       # average WriteReq miss latency
system.cpu.dcache.WriteReq_mshr_hits::.cpu.data          481                       # number of WriteReq MSHR hits
system.cpu.dcache.WriteReq_mshr_hits::total          481                       # number of WriteReq MSHR hits
system.cpu.dcache.WriteReq_mshr_misses::.cpu.data          142                       # number of WriteReq MSHR misses
system.cpu.dcache.WriteReq_mshr_misses::total          142                       # number of WriteReq MSHR misses
system.cpu.dcache.WriteReq_mshr_miss_latency::.cpu.data     11482497                       # number of WriteReq MSHR miss cycles
system.cpu.dcache.WriteReq_mshr_miss_latency::total     11482497                       # number of WriteReq MSHR miss cycles
system.cpu.dcache.WriteReq_mshr_miss_rate::.cpu.data     0.001238                       # mshr miss rate for WriteReq accesses
system.cpu.dcache.WriteReq_mshr_miss_rate::total     0.001238                       # mshr miss rate for WriteReq accesses
system.cpu.dcache.WriteReq_avg_mshr_miss_latency::.cpu.data 80862.654930                       # average WriteReq mshr miss latency
system.cpu.dcache.WriteReq_avg_mshr_miss_latency::total 80862.654930                       # average WriteReq mshr miss latency
system.cpu.dcache.SoftPFReq_hits::.cpu.data            8                       # number of SoftPFReq hits
system.cpu.dcache.SoftPFReq_hits::total             8                       # number of SoftPFReq hits
system.cpu.dcache.SoftPFReq_misses::.cpu.data            2                       # number of SoftPFReq misses
system.cpu.dcache.SoftPFReq_misses::total            2                       # number of SoftPFReq misses
system.cpu.dcache.SoftPFReq_accesses::.cpu.data           10                       # number of SoftPFReq accesses(hits+misses)
system.cpu.dcache.SoftPFReq_accesses::total           10                       # number of SoftPFReq accesses(hits+misses)
system.cpu.dcache.SoftPFReq_miss_rate::.cpu.data     0.200000                       # miss rate for SoftPFReq accesses
system.cpu.dcache.SoftPFReq_miss_rate::total     0.200000                       # miss rate for SoftPFReq accesses
system.cpu.dcache.SoftPFReq_mshr_misses::.cpu.data            2                       # number of SoftPFReq MSHR misses
system.cpu.dcache.SoftPFReq_mshr_misses::total            2                       # number of SoftPFReq MSHR misses
system.cpu.dcache.SoftPFReq_mshr_miss_latency::.cpu.data       184500                       # number of SoftPFReq MSHR miss cycles
system.cpu.dcache.SoftPFReq_mshr_miss_latency::total       184500                       # number of SoftPFReq MSHR miss cycles
system.cpu.dcache.SoftPFReq_mshr_miss_rate::.cpu.data     0.200000                       # mshr miss rate for SoftPFReq accesses
system.cpu.dcache.SoftPFReq_mshr_miss_rate::total     0.200000                       # mshr miss rate for SoftPFReq accesses
system.cpu.dcache.SoftPFReq_avg_mshr_miss_latency::.cpu.data        92250                       # average SoftPFReq mshr miss latency
system.cpu.dcache.SoftPFReq_avg_mshr_miss_latency::total        92250                       # average SoftPFReq mshr miss latency
system.cpu.dcache.WriteLineReq_misses::.cpu.data            7                       # number of WriteLineReq misses
system.cpu.dcache.WriteLineReq_misses::total            7                       # number of WriteLineReq misses
system.cpu.dcache.WriteLineReq_miss_latency::.cpu.data       222498                       # number of WriteLineReq miss cycles
system.cpu.dcache.WriteLineReq_miss_latency::total       222498                       # number of WriteLineReq miss cycles
system.cpu.dcache.WriteLineReq_accesses::.cpu.data            7                       # number of WriteLineReq accesses(hits+misses)
system.cpu.dcache.WriteLineReq_accesses::total            7                       # number of WriteLineReq accesses(hits+misses)
system.cpu.dcache.WriteLineReq_miss_rate::.cpu.data            1                       # miss rate for WriteLineReq accesses
system.cpu.dcache.WriteLineReq_miss_rate::total            1                       # miss rate for WriteLineReq accesses
system.cpu.dcache.WriteLineReq_avg_miss_latency::.cpu.data 31785.428571                       # average WriteLineReq miss latency
system.cpu.dcache.WriteLineReq_avg_miss_latency::total 31785.428571                       # average WriteLineReq miss latency
system.cpu.dcache.WriteLineReq_mshr_misses::.cpu.data            7                       # number of WriteLineReq MSHR misses
system.cpu.dcache.WriteLineReq_mshr_misses::total            7                       # number of WriteLineReq MSHR misses
system.cpu.dcache.WriteLineReq_mshr_miss_latency::.cpu.data       215498                       # number of WriteLineReq MSHR miss cycles
system.cpu.dcache.WriteLineReq_mshr_miss_latency::total       215498                       # number of WriteLineReq MSHR miss cycles
system.cpu.dcache.WriteLineReq_mshr_miss_rate::.cpu.data            1                       # mshr miss rate for WriteLineReq accesses
system.cpu.dcache.WriteLineReq_mshr_miss_rate::total            1                       # mshr miss rate for WriteLineReq accesses
system.cpu.dcache.WriteLineReq_avg_mshr_miss_latency::.cpu.data 30785.428571                       # average WriteLineReq mshr miss latency
system.cpu.dcache.WriteLineReq_avg_mshr_miss_latency::total 30785.428571                       # average WriteLineReq mshr miss latency
system.cpu.dcache.LoadLockedReq_hits::.cpu.data           53                       # number of LoadLockedReq hits
system.cpu.dcache.LoadLockedReq_hits::total           53                       # number of LoadLockedReq hits
system.cpu.dcache.LoadLockedReq_misses::.cpu.data            2                       # number of LoadLockedReq misses
system.cpu.dcache.LoadLockedReq_misses::total            2                       # number of LoadLockedReq misses
system.cpu.dcache.LoadLockedReq_miss_latency::.cpu.data       111500                       # number of LoadLockedReq miss cycles
system.cpu.dcache.LoadLockedReq_miss_latency::total       111500                       # number of LoadLockedReq miss cycles
system.cpu.dcache.LoadLockedReq_accesses::.cpu.data           55                       # number of LoadLockedReq accesses(hits+misses)
system.cpu.dcache.LoadLockedReq_accesses::total           55                       # number of LoadLockedReq accesses(hits+misses)
system.cpu.dcache.LoadLockedReq_miss_rate::.cpu.data     0.036364                       # miss rate for LoadLockedReq accesses
system.cpu.dcache.LoadLockedReq_miss_rate::total     0.036364                       # miss rate for LoadLockedReq accesses
system.cpu.dcache.LoadLockedReq_avg_miss_latency::.cpu.data        55750                       # average LoadLockedReq miss latency
system.cpu.dcache.LoadLockedReq_avg_miss_latency::total        55750                       # average LoadLockedReq miss latency
system.cpu.dcache.LoadLockedReq_mshr_hits::.cpu.data            1                       # number of LoadLockedReq MSHR hits
system.cpu.dcache.LoadLockedReq_mshr_hits::total            1                       # number of LoadLockedReq MSHR hits
system.cpu.dcache.LoadLockedReq_mshr_misses::.cpu.data            1                       # number of LoadLockedReq MSHR misses
system.cpu.dcache.LoadLockedReq_mshr_misses::total            1                       # number of LoadLockedReq MSHR misses
system.cpu.dcache.LoadLockedReq_mshr_miss_latency::.cpu.data        72500                       # number of LoadLockedReq MSHR miss cycles
system.cpu.dcache.LoadLockedReq_mshr_miss_latency::total        72500                       # number of LoadLockedReq MSHR miss cycles
system.cpu.dcache.LoadLockedReq_mshr_miss_rate::.cpu.data     0.018182                       # mshr miss rate for LoadLockedReq accesses
system.cpu.dcache.LoadLockedReq_mshr_miss_rate::total     0.018182                       # mshr miss rate for LoadLockedReq accesses
system.cpu.dcache.LoadLockedReq_avg_mshr_miss_latency::.cpu.data        72500                       # average LoadLockedReq mshr miss latency
system.cpu.dcache.LoadLockedReq_avg_mshr_miss_latency::total        72500                       # average LoadLockedReq mshr miss latency
system.cpu.dcache.StoreCondReq_hits::.cpu.data           46                       # number of StoreCondReq hits
system.cpu.dcache.StoreCondReq_hits::total           46                       # number of StoreCondReq hits
system.cpu.dcache.StoreCondReq_accesses::.cpu.data           46                       # number of StoreCondReq accesses(hits+misses)
system.cpu.dcache.StoreCondReq_accesses::total           46                       # number of StoreCondReq accesses(hits+misses)
system.cpu.dcache.power_state.pwrStateResidencyTicks::UNDEFINED    171474500                       # Cumulative time (in ticks) in various power states
system.cpu.dcache.tags.tagsinuse           218.985496                       # Cycle average of tags in use
system.cpu.dcache.tags.total_refs              214814                       # Total number of references to valid blocks.
system.cpu.dcache.tags.sampled_refs               263                       # Sample count of references to valid blocks.
system.cpu.dcache.tags.avg_refs            816.783270                       # Average number of references to valid blocks.
system.cpu.dcache.tags.warmup_cycle            176500                       # Cycle when the warmup percentage was hit.
system.cpu.dcache.tags.occ_blocks::.cpu.data   218.985496                       # Average occupied blocks per requestor
system.cpu.dcache.tags.occ_percent::.cpu.data     0.427706                       # Average percentage of cache occupancy
system.cpu.dcache.tags.occ_percent::total     0.427706                       # Average percentage of cache occupancy
system.cpu.dcache.tags.occ_task_id_blocks::1024          238                       # Occupied blocks per task id
system.cpu.dcache.tags.age_task_id_blocks_1024::2          238                       # Occupied blocks per task id
system.cpu.dcache.tags.occ_task_id_percent::1024     0.464844                       # Percentage of cache occupancy per task id
system.cpu.dcache.tags.tag_accesses            431085                       # Number of tag accesses
system.cpu.dcache.tags.data_accesses           431085                       # Number of data accesses
system.cpu.dcache.tags.power_state.pwrStateResidencyTicks::UNDEFINED    171474500                       # Cumulative time (in ticks) in various power states
system.cpu.power_state.pwrStateResidencyTicks::ON    171474500                       # Cumulative time (in ticks) in various power states

---------- End Simulation Statistics   ----------
