
---------- Begin Simulation Statistics ----------
final_tick                                  302249500                       # Number of ticks from beginning of simulation (restored from checkpoints and never reset)
host_inst_rate                                 128934                       # Simulator instruction rate (inst/s)
host_mem_usage                                 852312                       # Number of bytes of host memory used
host_op_rate                                   161660                       # Simulator op (including micro ops) rate (op/s)
host_seconds                                     7.76                       # Real time elapsed on the host
host_tick_rate                               38969162                       # Simulator tick rate (ticks/s)
sim_freq                                 1000000000000                       # Frequency of simulated ticks
sim_insts                                     1000002                       # Number of instructions simulated
sim_ops                                       1253848                       # Number of ops (including micro ops) simulated
sim_seconds                                  0.000302                       # Number of seconds simulated
sim_ticks                                   302249500                       # Number of ticks simulated
system.cpu.branchPred.BTBCorrect                    0                       # Number of correct BTB predictions (this stat may not work properly.
system.cpu.branchPred.BTBHitPct             98.726888                       # BTB Hit Percentage
system.cpu.branchPred.BTBHits                   65838                       # Number of BTB hits
system.cpu.branchPred.BTBLookups                66687                       # Number of BTB lookups
system.cpu.branchPred.RASInCorrect                  2                       # Number of incorrect RAS predictions.
system.cpu.branchPred.condIncorrect               940                       # Number of conditional branches incorrect
system.cpu.branchPred.condPredicted            137232                       # Number of conditional branches predicted
system.cpu.branchPred.indirectHits                  5                       # Number of indirect target hits.
system.cpu.branchPred.indirectLookups             195                       # Number of indirect predictor lookups.
system.cpu.branchPred.indirectMisses              190                       # Number of indirect misses.
system.cpu.branchPred.lookups                  190641                       # Number of BP lookups
system.cpu.branchPred.loop_predictor.loopPredictorCorrect       106078                       # Number of times the loop predictor is the provider and the prediction is correct
system.cpu.branchPred.loop_predictor.loopPredictorWrong        28445                       # Number of times the loop predictor is the provider and the prediction is wrong
system.cpu.branchPred.statistical_corrector.scPredictorCorrect       106057                       # Number of time the SC predictor is the provider and the prediction is correct
system.cpu.branchPred.statistical_corrector.scPredictorWrong        28466                       # Number of time the SC predictor is the provider and the prediction is wrong
system.cpu.branchPred.tage.bimodalAltMatchProviderCorrect           49                       # Number of times TAGE Alt Match is the bimodal and it is the provider and the prediction is correct
system.cpu.branchPred.tage.bimodalAltMatchProviderWrong           11                       # Number of times TAGE Alt Match is the bimodal and it is the provider and the prediction is wrong
system.cpu.branchPred.tage.tageAltMatchProvider::0         4570                       # TAGE provider for alt match
system.cpu.branchPred.tage.tageAltMatchProvider::1            0                       # TAGE provider for alt match
system.cpu.branchPred.tage.tageAltMatchProvider::2         3064                       # TAGE provider for alt match
system.cpu.branchPred.tage.tageAltMatchProvider::3            0                       # TAGE provider for alt match
system.cpu.branchPred.tage.tageAltMatchProvider::4            4                       # TAGE provider for alt match
system.cpu.branchPred.tage.tageAltMatchProvider::5            0                       # TAGE provider for alt match
system.cpu.branchPred.tage.tageAltMatchProvider::6            2                       # TAGE provider for alt match
system.cpu.branchPred.tage.tageAltMatchProvider::7         6082                       # TAGE provider for alt match
system.cpu.branchPred.tage.tageAltMatchProvider::8            3                       # TAGE provider for alt match
system.cpu.branchPred.tage.tageAltMatchProvider::9            3                       # TAGE provider for alt match
system.cpu.branchPred.tage.tageAltMatchProvider::10            4                       # TAGE provider for alt match
system.cpu.branchPred.tage.tageAltMatchProvider::11            8                       # TAGE provider for alt match
system.cpu.branchPred.tage.tageAltMatchProvider::12            2                       # TAGE provider for alt match
system.cpu.branchPred.tage.tageAltMatchProvider::13            3                       # TAGE provider for alt match
system.cpu.branchPred.tage.tageAltMatchProvider::14            1                       # TAGE provider for alt match
system.cpu.branchPred.tage.tageAltMatchProvider::15            4                       # TAGE provider for alt match
system.cpu.branchPred.tage.tageAltMatchProvider::16         1508                       # TAGE provider for alt match
system.cpu.branchPred.tage.tageAltMatchProvider::17            6                       # TAGE provider for alt match
system.cpu.branchPred.tage.tageAltMatchProvider::18         3016                       # TAGE provider for alt match
system.cpu.branchPred.tage.tageAltMatchProvider::19            1                       # TAGE provider for alt match
system.cpu.branchPred.tage.tageAltMatchProvider::20            0                       # TAGE provider for alt match
system.cpu.branchPred.tage.tageAltMatchProvider::21            0                       # TAGE provider for alt match
system.cpu.branchPred.tage.tageAltMatchProvider::22            0                       # TAGE provider for alt match
system.cpu.branchPred.tage.tageAltMatchProvider::23            0                       # TAGE provider for alt match
system.cpu.branchPred.tage.tageAltMatchProvider::24            0                       # TAGE provider for alt match
system.cpu.branchPred.tage.tageAltMatchProvider::25            0                       # TAGE provider for alt match
system.cpu.branchPred.tage.tageAltMatchProvider::26            0                       # TAGE provider for alt match
system.cpu.branchPred.tage.tageAltMatchProvider::27            0                       # TAGE provider for alt match
system.cpu.branchPred.tage.tageAltMatchProvider::28            0                       # TAGE provider for alt match
system.cpu.branchPred.tage.tageAltMatchProvider::29            0                       # TAGE provider for alt match
system.cpu.branchPred.tage.tageAltMatchProvider::30            0                       # TAGE provider for alt match
system.cpu.branchPred.tage.tageAltMatchProviderCorrect           58                       # Number of times TAGE Alt Match is the provider and the prediction is correct
system.cpu.branchPred.tage.tageAltMatchProviderWouldHaveHit            6                       # Number of times TAGE Longest Match is the provider, the prediction is wrong and Alt Match prediction was correct
system.cpu.branchPred.tage.tageAltMatchProviderWrong           21                       # Number of times TAGE Alt Match is the provider and the prediction is wrong
system.cpu.branchPred.tage.tageBimodalProviderCorrect       115674                       # Number of times there are no hits on the TAGE tables and the bimodal prediction is correct
system.cpu.branchPred.tage.tageBimodalProviderWrong          434                       # Number of times there are no hits on the TAGE tables and the bimodal prediction is wrong
system.cpu.branchPred.tage.tageLongestMatchProvider::0            0                       # TAGE provider for longest match
system.cpu.branchPred.tage.tageLongestMatchProvider::1            0                       # TAGE provider for longest match
system.cpu.branchPred.tage.tageLongestMatchProvider::2            7                       # TAGE provider for longest match
system.cpu.branchPred.tage.tageLongestMatchProvider::3            0                       # TAGE provider for longest match
system.cpu.branchPred.tage.tageLongestMatchProvider::4            5                       # TAGE provider for longest match
system.cpu.branchPred.tage.tageLongestMatchProvider::5            0                       # TAGE provider for longest match
system.cpu.branchPred.tage.tageLongestMatchProvider::6         3066                       # TAGE provider for longest match
system.cpu.branchPred.tage.tageLongestMatchProvider::7         1530                       # TAGE provider for longest match
system.cpu.branchPred.tage.tageLongestMatchProvider::8         3035                       # TAGE provider for longest match
system.cpu.branchPred.tage.tageLongestMatchProvider::9            3                       # TAGE provider for longest match
system.cpu.branchPred.tage.tageLongestMatchProvider::10         6080                       # TAGE provider for longest match
system.cpu.branchPred.tage.tageLongestMatchProvider::11            2                       # TAGE provider for longest match
system.cpu.branchPred.tage.tageLongestMatchProvider::12            5                       # TAGE provider for longest match
system.cpu.branchPred.tage.tageLongestMatchProvider::13            2                       # TAGE provider for longest match
system.cpu.branchPred.tage.tageLongestMatchProvider::14            9                       # TAGE provider for longest match
system.cpu.branchPred.tage.tageLongestMatchProvider::15            0                       # TAGE provider for longest match
system.cpu.branchPred.tage.tageLongestMatchProvider::16            3                       # TAGE provider for longest match
system.cpu.branchPred.tage.tageLongestMatchProvider::17            0                       # TAGE provider for longest match
system.cpu.branchPred.tage.tageLongestMatchProvider::18         1514                       # TAGE provider for longest match
system.cpu.branchPred.tage.tageLongestMatchProvider::19         1507                       # TAGE provider for longest match
system.cpu.branchPred.tage.tageLongestMatchProvider::20         1513                       # TAGE provider for longest match
system.cpu.branchPred.tage.tageLongestMatchProvider::21            0                       # TAGE provider for longest match
system.cpu.branchPred.tage.tageLongestMatchProvider::22            0                       # TAGE provider for longest match
system.cpu.branchPred.tage.tageLongestMatchProvider::23            0                       # TAGE provider for longest match
system.cpu.branchPred.tage.tageLongestMatchProvider::24            0                       # TAGE provider for longest match
system.cpu.branchPred.tage.tageLongestMatchProvider::25            0                       # TAGE provider for longest match
system.cpu.branchPred.tage.tageLongestMatchProvider::26            0                       # TAGE provider for longest match
system.cpu.branchPred.tage.tageLongestMatchProvider::27            0                       # TAGE provider for longest match
system.cpu.branchPred.tage.tageLongestMatchProvider::28            0                       # TAGE provider for longest match
system.cpu.branchPred.tage.tageLongestMatchProvider::29            0                       # TAGE provider for longest match
system.cpu.branchPred.tage.tageLongestMatchProvider::30            0                       # TAGE provider for longest match
system.cpu.branchPred.tage.tageLongestMatchProviderCorrect        18188                       # Number of times TAGE Longest Match is the provider and the prediction is correct
system.cpu.branchPred.tage.tageLongestMatchProviderWouldHaveHit           11                       # Number of times TAGE Alt Match is the provider, the prediction is wrong and Longest Match prediction was correct
system.cpu.branchPred.tage.tageLongestMatchProviderWrong           14                       # Number of times TAGE Longest Match is the provider and the prediction is wrong
system.cpu.branchPred.usedRAS                   15573                       # Number of times the RAS was used to get a target.
system.cpu.branchPredindirectMispredicted           64                       # Number of mispredicted indirect branches.
system.cpu.cc_regfile_reads                    257457                       # number of cc regfile reads
system.cpu.cc_regfile_writes                   257394                       # number of cc regfile writes
system.cpu.commit.amos                              0                       # Number of atomic instructions committed
system.cpu.commit.branchMispredicts               605                       # The number of times a branch was mispredicted
system.cpu.commit.branches                     186765                       # Number of branches committed
system.cpu.commit.bw_lim_events                 94499                       # number cycles where commit BW limit reached
system.cpu.commit.commitNonSpecStalls              60                       # The number of times commit has been forced to stall to communicate backwards
system.cpu.commit.commitSquashedInsts           10029                       # The number of squashed insts skipped by commit
system.cpu.commit.committedInsts              1000029                       # Number of instructions committed
system.cpu.commit.committedOps                1253875                       # Number of ops (including micro ops) committed
system.cpu.commit.committed_per_cycle::samples       544665                       # Number of insts commited each cycle
system.cpu.commit.committed_per_cycle::mean     2.302103                       # Number of insts commited each cycle
system.cpu.commit.committed_per_cycle::stdev     3.085122                       # Number of insts commited each cycle
system.cpu.commit.committed_per_cycle::underflows            0      0.00%      0.00% # Number of insts commited each cycle
system.cpu.commit.committed_per_cycle::0       256502     47.09%     47.09% # Number of insts commited each cycle
system.cpu.commit.committed_per_cycle::1        99545     18.28%     65.37% # Number of insts commited each cycle
system.cpu.commit.committed_per_cycle::2        16582      3.04%     68.41% # Number of insts commited each cycle
system.cpu.commit.committed_per_cycle::3        15860      2.91%     71.33% # Number of insts commited each cycle
system.cpu.commit.committed_per_cycle::4        26192      4.81%     76.14% # Number of insts commited each cycle
system.cpu.commit.committed_per_cycle::5         9331      1.71%     77.85% # Number of insts commited each cycle
system.cpu.commit.committed_per_cycle::6        16907      3.10%     80.95% # Number of insts commited each cycle
system.cpu.commit.committed_per_cycle::7         9247      1.70%     82.65% # Number of insts commited each cycle
system.cpu.commit.committed_per_cycle::8        94499     17.35%    100.00% # Number of insts commited each cycle
system.cpu.commit.committed_per_cycle::overflows            0      0.00%    100.00% # Number of insts commited each cycle
system.cpu.commit.committed_per_cycle::min_value            0                       # Number of insts commited each cycle
system.cpu.commit.committed_per_cycle::max_value            8                       # Number of insts commited each cycle
system.cpu.commit.committed_per_cycle::total       544665                       # Number of insts commited each cycle
system.cpu.commit.fp_insts                          0                       # Number of committed floating point instructions.
system.cpu.commit.function_calls                15355                       # Number of function calls committed.
system.cpu.commit.int_insts                   1159380                       # Number of committed integer instructions.
system.cpu.commit.loads                        199569                       # Number of loads committed
system.cpu.commit.membars                          46                       # Number of memory barriers committed
system.cpu.commit.op_class_0::No_OpClass            4      0.00%      0.00% # Class of committed instruction
system.cpu.commit.op_class_0::IntAlu           805940     64.28%     64.28% # Class of committed instruction
system.cpu.commit.op_class_0::IntMult            6086      0.49%     64.76% # Class of committed instruction
system.cpu.commit.op_class_0::IntDiv                3      0.00%     64.76% # Class of committed instruction
system.cpu.commit.op_class_0::FloatAdd           3024      0.24%     65.00% # Class of committed instruction
system.cpu.commit.op_class_0::FloatCmp              0      0.00%     65.00% # Class of committed instruction
system.cpu.commit.op_class_0::FloatCvt           3030      0.24%     65.24% # Class of committed instruction
system.cpu.commit.op_class_0::FloatMult             4      0.00%     65.25% # Class of committed instruction
system.cpu.commit.op_class_0::FloatMultAcc            1      0.00%     65.25% # Class of committed instruction
system.cpu.commit.op_class_0::FloatDiv           3027      0.24%     65.49% # Class of committed instruction
system.cpu.commit.op_class_0::FloatMisc          3030      0.24%     65.73% # Class of committed instruction
system.cpu.commit.op_class_0::FloatSqrt             0      0.00%     65.73% # Class of committed instruction
system.cpu.commit.op_class_0::SimdAdd              18      0.00%     65.73% # Class of committed instruction
system.cpu.commit.op_class_0::SimdAddAcc            0      0.00%     65.73% # Class of committed instruction
system.cpu.commit.op_class_0::SimdAlu              16      0.00%     65.73% # Class of committed instruction
system.cpu.commit.op_class_0::SimdCmp              16      0.00%     65.73% # Class of committed instruction
system.cpu.commit.op_class_0::SimdCvt               2      0.00%     65.73% # Class of committed instruction
system.cpu.commit.op_class_0::SimdMisc             15      0.00%     65.73% # Class of committed instruction
system.cpu.commit.op_class_0::SimdMult              0      0.00%     65.73% # Class of committed instruction
system.cpu.commit.op_class_0::SimdMultAcc            0      0.00%     65.73% # Class of committed instruction
system.cpu.commit.op_class_0::SimdShift             0      0.00%     65.73% # Class of committed instruction
system.cpu.commit.op_class_0::SimdShiftAcc            0      0.00%     65.73% # Class of committed instruction
system.cpu.commit.op_class_0::SimdDiv               0      0.00%     65.73% # Class of committed instruction
system.cpu.commit.op_class_0::SimdSqrt              0      0.00%     65.73% # Class of committed instruction
system.cpu.commit.op_class_0::SimdFloatAdd            0      0.00%     65.73% # Class of committed instruction
system.cpu.commit.op_class_0::SimdFloatAlu            0      0.00%     65.73% # Class of committed instruction
system.cpu.commit.op_class_0::SimdFloatCmp            0      0.00%     65.73% # Class of committed instruction
system.cpu.commit.op_class_0::SimdFloatCvt            0      0.00%     65.73% # Class of committed instruction
system.cpu.commit.op_class_0::SimdFloatDiv            0      0.00%     65.73% # Class of committed instruction
system.cpu.commit.op_class_0::SimdFloatMisc            0      0.00%     65.73% # Class of committed instruction
system.cpu.commit.op_class_0::SimdFloatMult            0      0.00%     65.73% # Class of committed instruction
system.cpu.commit.op_class_0::SimdFloatMultAcc            0      0.00%     65.73% # Class of committed instruction
system.cpu.commit.op_class_0::SimdFloatSqrt            0      0.00%     65.73% # Class of committed instruction
system.cpu.commit.op_class_0::SimdReduceAdd            0      0.00%     65.73% # Class of committed instruction
system.cpu.commit.op_class_0::SimdReduceAlu            0      0.00%     65.73% # Class of committed instruction
system.cpu.commit.op_class_0::SimdReduceCmp            0      0.00%     65.73% # Class of committed instruction
system.cpu.commit.op_class_0::SimdFloatReduceAdd            0      0.00%     65.73% # Class of committed instruction
system.cpu.commit.op_class_0::SimdFloatReduceCmp            0      0.00%     65.73% # Class of committed instruction
system.cpu.commit.op_class_0::SimdAes               0      0.00%     65.73% # Class of committed instruction
system.cpu.commit.op_class_0::SimdAesMix            0      0.00%     65.73% # Class of committed instruction
system.cpu.commit.op_class_0::SimdSha1Hash            0      0.00%     65.73% # Class of committed instruction
system.cpu.commit.op_class_0::SimdSha1Hash2            0      0.00%     65.73% # Class of committed instruction
system.cpu.commit.op_class_0::SimdSha256Hash            0      0.00%     65.73% # Class of committed instruction
system.cpu.commit.op_class_0::SimdSha256Hash2            0      0.00%     65.73% # Class of committed instruction
system.cpu.commit.op_class_0::SimdShaSigma2            0      0.00%     65.73% # Class of committed instruction
system.cpu.commit.op_class_0::SimdShaSigma3            0      0.00%     65.73% # Class of committed instruction
system.cpu.commit.op_class_0::SimdPredAlu            0      0.00%     65.73% # Class of committed instruction
system.cpu.commit.op_class_0::MemRead          199569     15.92%     81.65% # Class of committed instruction
system.cpu.commit.op_class_0::MemWrite         230090     18.35%    100.00% # Class of committed instruction
system.cpu.commit.op_class_0::FloatMemRead            0      0.00%    100.00% # Class of committed instruction
system.cpu.commit.op_class_0::FloatMemWrite            0      0.00%    100.00% # Class of committed instruction
system.cpu.commit.op_class_0::IprAccess             0      0.00%    100.00% # Class of committed instruction
system.cpu.commit.op_class_0::InstPrefetch            0      0.00%    100.00% # Class of committed instruction
system.cpu.commit.op_class_0::total           1253875                       # Class of committed instruction
system.cpu.commit.refs                         429659                       # Number of memory references committed
system.cpu.commit.swp_count                         0                       # Number of s/w prefetches committed
system.cpu.commit.vec_insts                     12432                       # Number of committed Vector instructions.
system.cpu.committedInsts                     1000002                       # Number of Instructions Simulated
system.cpu.committedOps                       1253848                       # Number of Ops (including micro ops) Simulated
system.cpu.cpi                               0.604499                       # CPI: Cycles Per Instruction
system.cpu.cpi_total                         0.604499                       # CPI: Total CPI of All Threads
system.cpu.decode.BlockedCycles                311838                       # Number of cycles decode is blocked
system.cpu.decode.BranchMispred                   350                       # Number of times decode detected a branch misprediction
system.cpu.decode.BranchResolved                65976                       # Number of times decode resolved a branch
system.cpu.decode.DecodedInsts                1267701                       # Number of instructions handled by decode
system.cpu.decode.IdleCycles                    53723                       # Number of cycles decode is idle
system.cpu.decode.RunCycles                    155521                       # Number of cycles decode is running
system.cpu.decode.SquashCycles                    655                       # Number of cycles decode is squashing
system.cpu.decode.SquashedInsts                  1243                       # Number of squashed instructions handled by decode
system.cpu.decode.UnblockCycles                 24577                       # Number of cycles decode is unblocking
system.cpu.dtb.accesses                             0                       # DTB accesses
system.cpu.dtb.align_faults                         0                       # Number of TLB faults due to alignment restrictions
system.cpu.dtb.domain_faults                        0                       # Number of TLB faults due to domain restrictions
system.cpu.dtb.flush_entries                        0                       # Number of entries that have been flushed from TLB
system.cpu.dtb.flush_tlb                            0                       # Number of times complete TLB was flushed
system.cpu.dtb.flush_tlb_asid                       0                       # Number of times TLB was flushed by ASID
system.cpu.dtb.flush_tlb_mva                        0                       # Number of times TLB was flushed by MVA
system.cpu.dtb.flush_tlb_mva_asid                   0                       # Number of times TLB was flushed by MVA & ASID
system.cpu.dtb.hits                                 0                       # DTB hits
system.cpu.dtb.inst_accesses                        0                       # ITB inst accesses
system.cpu.dtb.inst_hits                            0                       # ITB inst hits
system.cpu.dtb.inst_misses                          0                       # ITB inst misses
system.cpu.dtb.misses                               0                       # DTB misses
system.cpu.dtb.perms_faults                         0                       # Number of TLB faults due to permissions restrictions
system.cpu.dtb.prefetch_faults                      0                       # Number of TLB faults due to prefetch
system.cpu.dtb.read_accesses                        0                       # DTB read accesses
system.cpu.dtb.read_hits                            0                       # DTB read hits
system.cpu.dtb.read_misses                          0                       # DTB read misses
system.cpu.dtb.stage2_mmu.stage2_tlb.accesses            0                       # DTB accesses
system.cpu.dtb.stage2_mmu.stage2_tlb.align_faults            0                       # Number of TLB faults due to alignment restrictions
system.cpu.dtb.stage2_mmu.stage2_tlb.domain_faults            0                       # Number of TLB faults due to domain restrictions
system.cpu.dtb.stage2_mmu.stage2_tlb.flush_entries            0                       # Number of entries that have been flushed from TLB
system.cpu.dtb.stage2_mmu.stage2_tlb.flush_tlb            0                       # Number of times complete TLB was flushed
system.cpu.dtb.stage2_mmu.stage2_tlb.flush_tlb_asid            0                       # Number of times TLB was flushed by ASID
system.cpu.dtb.stage2_mmu.stage2_tlb.flush_tlb_mva            0                       # Number of times TLB was flushed by MVA
system.cpu.dtb.stage2_mmu.stage2_tlb.flush_tlb_mva_asid            0                       # Number of times TLB was flushed by MVA & ASID
system.cpu.dtb.stage2_mmu.stage2_tlb.hits            0                       # DTB hits
system.cpu.dtb.stage2_mmu.stage2_tlb.inst_accesses            0                       # ITB inst accesses
system.cpu.dtb.stage2_mmu.stage2_tlb.inst_hits            0                       # ITB inst hits
system.cpu.dtb.stage2_mmu.stage2_tlb.inst_misses            0                       # ITB inst misses
system.cpu.dtb.stage2_mmu.stage2_tlb.misses            0                       # DTB misses
system.cpu.dtb.stage2_mmu.stage2_tlb.perms_faults            0                       # Number of TLB faults due to permissions restrictions
system.cpu.dtb.stage2_mmu.stage2_tlb.prefetch_faults            0                       # Number of TLB faults due to prefetch
system.cpu.dtb.stage2_mmu.stage2_tlb.read_accesses            0                       # DTB read accesses
system.cpu.dtb.stage2_mmu.stage2_tlb.read_hits            0                       # DTB read hits
system.cpu.dtb.stage2_mmu.stage2_tlb.read_misses            0                       # DTB read misses
system.cpu.dtb.stage2_mmu.stage2_tlb.walker.walkRequestOrigin_Requested::Data            0                       # Table walker requests started/completed, data/inst
system.cpu.dtb.stage2_mmu.stage2_tlb.walker.walkRequestOrigin_Requested::Inst            0                       # Table walker requests started/completed, data/inst
system.cpu.dtb.stage2_mmu.stage2_tlb.walker.walkRequestOrigin_Requested::total            0                       # Table walker requests started/completed, data/inst
system.cpu.dtb.stage2_mmu.stage2_tlb.walker.walkRequestOrigin_Completed::Data            0                       # Table walker requests started/completed, data/inst
system.cpu.dtb.stage2_mmu.stage2_tlb.walker.walkRequestOrigin_Completed::Inst            0                       # Table walker requests started/completed, data/inst
system.cpu.dtb.stage2_mmu.stage2_tlb.walker.walkRequestOrigin_Completed::total            0                       # Table walker requests started/completed, data/inst
system.cpu.dtb.stage2_mmu.stage2_tlb.walker.walkRequestOrigin::total            0                       # Table walker requests started/completed, data/inst
system.cpu.dtb.stage2_mmu.stage2_tlb.walker.walks            0                       # Table walker walks requested
system.cpu.dtb.stage2_mmu.stage2_tlb.write_accesses            0                       # DTB write accesses
system.cpu.dtb.stage2_mmu.stage2_tlb.write_hits            0                       # DTB write hits
system.cpu.dtb.stage2_mmu.stage2_tlb.write_misses            0                       # DTB write misses
system.cpu.dtb.walker.walkRequestOrigin_Requested::Data            0                       # Table walker requests started/completed, data/inst
system.cpu.dtb.walker.walkRequestOrigin_Requested::Inst            0                       # Table walker requests started/completed, data/inst
system.cpu.dtb.walker.walkRequestOrigin_Requested::total            0                       # Table walker requests started/completed, data/inst
system.cpu.dtb.walker.walkRequestOrigin_Completed::Data            0                       # Table walker requests started/completed, data/inst
system.cpu.dtb.walker.walkRequestOrigin_Completed::Inst            0                       # Table walker requests started/completed, data/inst
system.cpu.dtb.walker.walkRequestOrigin_Completed::total            0                       # Table walker requests started/completed, data/inst
system.cpu.dtb.walker.walkRequestOrigin::total            0                       # Table walker requests started/completed, data/inst
system.cpu.dtb.walker.walks                         0                       # Table walker walks requested
system.cpu.dtb.write_accesses                       0                       # DTB write accesses
system.cpu.dtb.write_hits                           0                       # DTB write hits
system.cpu.dtb.write_misses                         0                       # DTB write misses
system.cpu.fetch.Branches                      190641                       # Number of branches that fetch encountered
system.cpu.fetch.CacheLines                    123192                       # Number of cache lines fetched
system.cpu.fetch.Cycles                        407883                       # Number of cycles fetch has run and was not squashing or blocked
system.cpu.fetch.IcacheSquashes                   629                       # Number of outstanding Icache misses that were squashed
system.cpu.fetch.IcacheWaitRetryStallCycles           32                       # Number of stall cycles due to full MSHR
system.cpu.fetch.Insts                        1017294                       # Number of instructions fetch has processed
system.cpu.fetch.MiscStallCycles                   43                       # Number of cycles fetch has spent waiting on interrupts, or bad addresses, or out of MSHRs
system.cpu.fetch.SquashCycles                    1980                       # Number of cycles fetch has spent squashing
system.cpu.fetch.branchRate                  0.315370                       # Number of branch fetches per cycle
system.cpu.fetch.icacheStallCycles             137366                       # Number of cycles fetch is stalled on an Icache miss
system.cpu.fetch.predictedBranches              81416                       # Number of branches that fetch has predicted taken
system.cpu.fetch.rate                        1.682868                       # Number of inst fetches per cycle
system.cpu.fetch.rateDist::samples             546314                       # Number of instructions fetched each cycle (Total)
system.cpu.fetch.rateDist::mean              2.330413                       # Number of instructions fetched each cycle (Total)
system.cpu.fetch.rateDist::stdev             3.189247                       # Number of instructions fetched each cycle (Total)
system.cpu.fetch.rateDist::underflows               0      0.00%      0.00% # Number of instructions fetched each cycle (Total)
system.cpu.fetch.rateDist::0                   312236     57.15%     57.15% # Number of instructions fetched each cycle (Total)
system.cpu.fetch.rateDist::1                    21834      4.00%     61.15% # Number of instructions fetched each cycle (Total)
system.cpu.fetch.rateDist::2                    28076      5.14%     66.29% # Number of instructions fetched each cycle (Total)
system.cpu.fetch.rateDist::3                    24818      4.54%     70.83% # Number of instructions fetched each cycle (Total)
system.cpu.fetch.rateDist::4                     5336      0.98%     71.81% # Number of instructions fetched each cycle (Total)
system.cpu.fetch.rateDist::5                    29169      5.34%     77.15% # Number of instructions fetched each cycle (Total)
system.cpu.fetch.rateDist::6                    20123      3.68%     80.83% # Number of instructions fetched each cycle (Total)
system.cpu.fetch.rateDist::7                     5006      0.92%     81.75% # Number of instructions fetched each cycle (Total)
system.cpu.fetch.rateDist::8                    99716     18.25%    100.00% # Number of instructions fetched each cycle (Total)
system.cpu.fetch.rateDist::overflows                0      0.00%    100.00% # Number of instructions fetched each cycle (Total)
system.cpu.fetch.rateDist::min_value                0                       # Number of instructions fetched each cycle (Total)
system.cpu.fetch.rateDist::max_value                8                       # Number of instructions fetched each cycle (Total)
system.cpu.fetch.rateDist::total               546314                       # Number of instructions fetched each cycle (Total)
system.cpu.idleCycles                           58186                       # Total number of cycles that the CPU has spent unscheduled due to idling
system.cpu.iew.branchMispredicts                  696                       # Number of branch mispredicts detected at execute
system.cpu.iew.exec_branches                   187807                       # Number of branches executed
system.cpu.iew.exec_nop                            53                       # number of nop insts executed
system.cpu.iew.exec_rate                     2.085166                       # Inst execution rate
system.cpu.iew.exec_refs                       431688                       # number of memory reference insts executed
system.cpu.iew.exec_stores                     230626                       # Number of stores executed
system.cpu.iew.exec_swp                             0                       # number of swp insts executed
system.cpu.iew.iewBlockCycles                    1778                       # Number of cycles IEW is blocking
system.cpu.iew.iewDispLoadInsts                201333                       # Number of dispatched load instructions
system.cpu.iew.iewDispNonSpecInsts                 83                       # Number of dispatched non-speculative instructions
system.cpu.iew.iewDispSquashedInsts               115                       # Number of squashed instructions skipped by dispatch
system.cpu.iew.iewDispStoreInsts               231254                       # Number of dispatched store instructions
system.cpu.iew.iewDispatchedInsts             1264033                       # Number of instructions dispatched to IQ
system.cpu.iew.iewExecLoadInsts                201062                       # Number of load instructions executed
system.cpu.iew.iewExecSquashedInsts               891                       # Number of squashed instructions skipped in execute
system.cpu.iew.iewExecutedInsts               1260483                       # Number of executed instructions
system.cpu.iew.iewIQFullEvents                      8                       # Number of times the IQ has become full, causing a stall
system.cpu.iew.iewIdleCycles                        0                       # Number of cycles IEW is idle
system.cpu.iew.iewLSQFullEvents                   136                       # Number of times the LSQ has become full, causing a stall
system.cpu.iew.iewSquashCycles                    655                       # Number of cycles IEW is squashing
system.cpu.iew.iewUnblockCycles                   148                       # Number of cycles IEW is unblocking
system.cpu.iew.lsq.thread0.blockedLoads             0                       # Number of blocked loads due to partial load-store forwarding
system.cpu.iew.lsq.thread0.cacheBlocked            59                       # Number of times an access to memory failed due to the cache being blocked
system.cpu.iew.lsq.thread0.forwLoads              131                       # Number of loads that had data forwarded from stores
system.cpu.iew.lsq.thread0.ignoredResponses            3                       # Number of memory responses ignored because the instruction is squashed
system.cpu.iew.lsq.thread0.invAddrLoads             0                       # Number of loads ignored due to an invalid address
system.cpu.iew.lsq.thread0.invAddrSwpfs             0                       # Number of software prefetches ignored due to an invalid address
system.cpu.iew.lsq.thread0.memOrderViolation           38                       # Number of memory ordering violations
system.cpu.iew.lsq.thread0.rescheduledLoads          152                       # Number of loads that were rescheduled
system.cpu.iew.lsq.thread0.squashedLoads         1764                       # Number of loads squashed
system.cpu.iew.lsq.thread0.squashedStores         1153                       # Number of stores squashed
system.cpu.iew.memOrderViolationEvents             38                       # Number of memory order violations
system.cpu.iew.predictedNotTakenIncorrect          582                       # Number of branches that were predicted not taken incorrectly
system.cpu.iew.predictedTakenIncorrect            114                       # Number of branches that were predicted taken incorrectly
system.cpu.iew.wb_consumers                   1250427                       # num instructions consuming a value
system.cpu.iew.wb_count                       1259445                       # cumulative count of insts written-back
system.cpu.iew.wb_fanout                     0.561443                       # average fanout of values written-back
system.cpu.iew.wb_producers                    702044                       # num instructions producing a value
system.cpu.iew.wb_rate                       2.083449                       # insts written-back per cycle
system.cpu.iew.wb_sent                        1259831                       # cumulative count of insts sent to commit
system.cpu.int_regfile_reads                  1492844                       # number of integer regfile reads
system.cpu.int_regfile_writes                  917683                       # number of integer regfile writes
system.cpu.ipc                               1.654263                       # IPC: Instructions Per Cycle
system.cpu.ipc_total                         1.654263                       # IPC: Total IPC of All Threads
system.cpu.iq.FU_type_0::No_OpClass                 6      0.00%      0.00% # Type of FU issued
system.cpu.iq.FU_type_0::IntAlu                811022     64.30%     64.30% # Type of FU issued
system.cpu.iq.FU_type_0::IntMult                 6089      0.48%     64.78% # Type of FU issued
system.cpu.iq.FU_type_0::IntDiv                     3      0.00%     64.78% # Type of FU issued
system.cpu.iq.FU_type_0::FloatAdd                3024      0.24%     65.02% # Type of FU issued
system.cpu.iq.FU_type_0::FloatCmp                   0      0.00%     65.02% # Type of FU issued
system.cpu.iq.FU_type_0::FloatCvt                3030      0.24%     65.26% # Type of FU issued
system.cpu.iq.FU_type_0::FloatMult                  4      0.00%     65.26% # Type of FU issued
system.cpu.iq.FU_type_0::FloatMultAcc               1      0.00%     65.26% # Type of FU issued
system.cpu.iq.FU_type_0::FloatDiv                3029      0.24%     65.50% # Type of FU issued
system.cpu.iq.FU_type_0::FloatMisc               3032      0.24%     65.74% # Type of FU issued
system.cpu.iq.FU_type_0::FloatSqrt                  0      0.00%     65.74% # Type of FU issued
system.cpu.iq.FU_type_0::SimdAdd                   24      0.00%     65.74% # Type of FU issued
system.cpu.iq.FU_type_0::SimdAddAcc                 0      0.00%     65.74% # Type of FU issued
system.cpu.iq.FU_type_0::SimdAlu                   20      0.00%     65.74% # Type of FU issued
system.cpu.iq.FU_type_0::SimdCmp                   23      0.00%     65.75% # Type of FU issued
system.cpu.iq.FU_type_0::SimdCvt                    2      0.00%     65.75% # Type of FU issued
system.cpu.iq.FU_type_0::SimdMisc                  17      0.00%     65.75% # Type of FU issued
system.cpu.iq.FU_type_0::SimdMult                   0      0.00%     65.75% # Type of FU issued
system.cpu.iq.FU_type_0::SimdMultAcc                0      0.00%     65.75% # Type of FU issued
system.cpu.iq.FU_type_0::SimdShift                  0      0.00%     65.75% # Type of FU issued
system.cpu.iq.FU_type_0::SimdShiftAcc               0      0.00%     65.75% # Type of FU issued
system.cpu.iq.FU_type_0::SimdDiv                    0      0.00%     65.75% # Type of FU issued
system.cpu.iq.FU_type_0::SimdSqrt                   0      0.00%     65.75% # Type of FU issued
system.cpu.iq.FU_type_0::SimdFloatAdd               0      0.00%     65.75% # Type of FU issued
system.cpu.iq.FU_type_0::SimdFloatAlu               0      0.00%     65.75% # Type of FU issued
system.cpu.iq.FU_type_0::SimdFloatCmp               0      0.00%     65.75% # Type of FU issued
system.cpu.iq.FU_type_0::SimdFloatCvt               0      0.00%     65.75% # Type of FU issued
system.cpu.iq.FU_type_0::SimdFloatDiv               0      0.00%     65.75% # Type of FU issued
system.cpu.iq.FU_type_0::SimdFloatMisc              0      0.00%     65.75% # Type of FU issued
system.cpu.iq.FU_type_0::SimdFloatMult              0      0.00%     65.75% # Type of FU issued
system.cpu.iq.FU_type_0::SimdFloatMultAcc            0      0.00%     65.75% # Type of FU issued
system.cpu.iq.FU_type_0::SimdFloatSqrt              0      0.00%     65.75% # Type of FU issued
system.cpu.iq.FU_type_0::SimdReduceAdd              0      0.00%     65.75% # Type of FU issued
system.cpu.iq.FU_type_0::SimdReduceAlu              0      0.00%     65.75% # Type of FU issued
system.cpu.iq.FU_type_0::SimdReduceCmp              0      0.00%     65.75% # Type of FU issued
system.cpu.iq.FU_type_0::SimdFloatReduceAdd            0      0.00%     65.75% # Type of FU issued
system.cpu.iq.FU_type_0::SimdFloatReduceCmp            0      0.00%     65.75% # Type of FU issued
system.cpu.iq.FU_type_0::SimdAes                    0      0.00%     65.75% # Type of FU issued
system.cpu.iq.FU_type_0::SimdAesMix                 0      0.00%     65.75% # Type of FU issued
system.cpu.iq.FU_type_0::SimdSha1Hash               0      0.00%     65.75% # Type of FU issued
system.cpu.iq.FU_type_0::SimdSha1Hash2              0      0.00%     65.75% # Type of FU issued
system.cpu.iq.FU_type_0::SimdSha256Hash             0      0.00%     65.75% # Type of FU issued
system.cpu.iq.FU_type_0::SimdSha256Hash2            0      0.00%     65.75% # Type of FU issued
system.cpu.iq.FU_type_0::SimdShaSigma2              0      0.00%     65.75% # Type of FU issued
system.cpu.iq.FU_type_0::SimdShaSigma3              0      0.00%     65.75% # Type of FU issued
system.cpu.iq.FU_type_0::SimdPredAlu                0      0.00%     65.75% # Type of FU issued
system.cpu.iq.FU_type_0::MemRead               201264     15.96%     81.70% # Type of FU issued
system.cpu.iq.FU_type_0::MemWrite              230791     18.30%    100.00% # Type of FU issued
system.cpu.iq.FU_type_0::FloatMemRead               0      0.00%    100.00% # Type of FU issued
system.cpu.iq.FU_type_0::FloatMemWrite              0      0.00%    100.00% # Type of FU issued
system.cpu.iq.FU_type_0::IprAccess                  0      0.00%    100.00% # Type of FU issued
system.cpu.iq.FU_type_0::InstPrefetch               0      0.00%    100.00% # Type of FU issued
system.cpu.iq.FU_type_0::total                1261381                       # Type of FU issued
system.cpu.iq.fp_alu_accesses                       0                       # Number of floating point alu accesses
system.cpu.iq.fp_inst_queue_reads                   0                       # Number of floating instruction queue reads
system.cpu.iq.fp_inst_queue_wakeup_accesses            0                       # Number of floating instruction queue wakeup accesses
system.cpu.iq.fp_inst_queue_writes                  0                       # Number of floating instruction queue writes
system.cpu.iq.fu_busy_cnt                       24689                       # FU busy when requested
system.cpu.iq.fu_busy_rate                   0.019573                       # FU busy rate (busy events/executed inst)
system.cpu.iq.fu_full::No_OpClass                   0      0.00%      0.00% # attempts to use FU when none available
system.cpu.iq.fu_full::IntAlu                    3199     12.96%     12.96% # attempts to use FU when none available
system.cpu.iq.fu_full::IntMult                      0      0.00%     12.96% # attempts to use FU when none available
system.cpu.iq.fu_full::IntDiv                       0      0.00%     12.96% # attempts to use FU when none available
system.cpu.iq.fu_full::FloatAdd                     0      0.00%     12.96% # attempts to use FU when none available
system.cpu.iq.fu_full::FloatCmp                     0      0.00%     12.96% # attempts to use FU when none available
system.cpu.iq.fu_full::FloatCvt                     0      0.00%     12.96% # attempts to use FU when none available
system.cpu.iq.fu_full::FloatMult                    2      0.01%     12.97% # attempts to use FU when none available
system.cpu.iq.fu_full::FloatMultAcc                 0      0.00%     12.97% # attempts to use FU when none available
system.cpu.iq.fu_full::FloatDiv                     1      0.00%     12.97% # attempts to use FU when none available
system.cpu.iq.fu_full::FloatMisc                   11      0.04%     13.01% # attempts to use FU when none available
system.cpu.iq.fu_full::FloatSqrt                    0      0.00%     13.01% # attempts to use FU when none available
system.cpu.iq.fu_full::SimdAdd                      0      0.00%     13.01% # attempts to use FU when none available
system.cpu.iq.fu_full::SimdAddAcc                   0      0.00%     13.01% # attempts to use FU when none available
system.cpu.iq.fu_full::SimdAlu                      1      0.00%     13.02% # attempts to use FU when none available
system.cpu.iq.fu_full::SimdCmp                      2      0.01%     13.03% # attempts to use FU when none available
system.cpu.iq.fu_full::SimdCvt                      0      0.00%     13.03% # attempts to use FU when none available
system.cpu.iq.fu_full::SimdMisc                     0      0.00%     13.03% # attempts to use FU when none available
system.cpu.iq.fu_full::SimdMult                     0      0.00%     13.03% # attempts to use FU when none available
system.cpu.iq.fu_full::SimdMultAcc                  0      0.00%     13.03% # attempts to use FU when none available
system.cpu.iq.fu_full::SimdShift                    0      0.00%     13.03% # attempts to use FU when none available
system.cpu.iq.fu_full::SimdShiftAcc                 0      0.00%     13.03% # attempts to use FU when none available
system.cpu.iq.fu_full::SimdDiv                      0      0.00%     13.03% # attempts to use FU when none available
system.cpu.iq.fu_full::SimdSqrt                     0      0.00%     13.03% # attempts to use FU when none available
system.cpu.iq.fu_full::SimdFloatAdd                 0      0.00%     13.03% # attempts to use FU when none available
system.cpu.iq.fu_full::SimdFloatAlu                 0      0.00%     13.03% # attempts to use FU when none available
system.cpu.iq.fu_full::SimdFloatCmp                 0      0.00%     13.03% # attempts to use FU when none available
system.cpu.iq.fu_full::SimdFloatCvt                 0      0.00%     13.03% # attempts to use FU when none available
system.cpu.iq.fu_full::SimdFloatDiv                 0      0.00%     13.03% # attempts to use FU when none available
system.cpu.iq.fu_full::SimdFloatMisc                0      0.00%     13.03% # attempts to use FU when none available
system.cpu.iq.fu_full::SimdFloatMult                0      0.00%     13.03% # attempts to use FU when none available
system.cpu.iq.fu_full::SimdFloatMultAcc             0      0.00%     13.03% # attempts to use FU when none available
system.cpu.iq.fu_full::SimdFloatSqrt                0      0.00%     13.03% # attempts to use FU when none available
system.cpu.iq.fu_full::SimdReduceAdd                0      0.00%     13.03% # attempts to use FU when none available
system.cpu.iq.fu_full::SimdReduceAlu                0      0.00%     13.03% # attempts to use FU when none available
system.cpu.iq.fu_full::SimdReduceCmp                0      0.00%     13.03% # attempts to use FU when none available
system.cpu.iq.fu_full::SimdFloatReduceAdd            0      0.00%     13.03% # attempts to use FU when none available
system.cpu.iq.fu_full::SimdFloatReduceCmp            0      0.00%     13.03% # attempts to use FU when none available
system.cpu.iq.fu_full::SimdAes                      0      0.00%     13.03% # attempts to use FU when none available
system.cpu.iq.fu_full::SimdAesMix                   0      0.00%     13.03% # attempts to use FU when none available
system.cpu.iq.fu_full::SimdSha1Hash                 0      0.00%     13.03% # attempts to use FU when none available
system.cpu.iq.fu_full::SimdSha1Hash2                0      0.00%     13.03% # attempts to use FU when none available
system.cpu.iq.fu_full::SimdSha256Hash               0      0.00%     13.03% # attempts to use FU when none available
system.cpu.iq.fu_full::SimdSha256Hash2              0      0.00%     13.03% # attempts to use FU when none available
system.cpu.iq.fu_full::SimdShaSigma2                0      0.00%     13.03% # attempts to use FU when none available
system.cpu.iq.fu_full::SimdShaSigma3                0      0.00%     13.03% # attempts to use FU when none available
system.cpu.iq.fu_full::SimdPredAlu                  0      0.00%     13.03% # attempts to use FU when none available
system.cpu.iq.fu_full::MemRead                   6151     24.91%     37.94% # attempts to use FU when none available
system.cpu.iq.fu_full::MemWrite                 15322     62.06%    100.00% # attempts to use FU when none available
system.cpu.iq.fu_full::FloatMemRead                 0      0.00%    100.00% # attempts to use FU when none available
system.cpu.iq.fu_full::FloatMemWrite                0      0.00%    100.00% # attempts to use FU when none available
system.cpu.iq.fu_full::IprAccess                    0      0.00%    100.00% # attempts to use FU when none available
system.cpu.iq.fu_full::InstPrefetch                 0      0.00%    100.00% # attempts to use FU when none available
system.cpu.iq.int_alu_accesses                1273515                       # Number of integer alu accesses
system.cpu.iq.int_inst_queue_reads            3068803                       # Number of integer instruction queue reads
system.cpu.iq.int_inst_queue_wakeup_accesses      1246976                       # Number of integer instruction queue wakeup accesses
system.cpu.iq.int_inst_queue_writes           1261467                       # Number of integer instruction queue writes
system.cpu.iq.iqInstsAdded                    1263897                       # Number of instructions added to the IQ (excludes non-spec)
system.cpu.iq.iqInstsIssued                   1261381                       # Number of instructions issued
system.cpu.iq.iqNonSpecInstsAdded                  83                       # Number of non-speculative instructions added to the IQ
system.cpu.iq.iqSquashedInstsExamined           10088                       # Number of squashed instructions iterated over during squash; mainly for profiling
system.cpu.iq.iqSquashedInstsIssued               100                       # Number of squashed instructions issued
system.cpu.iq.iqSquashedNonSpecRemoved             23                       # Number of squashed non-spec instructions that were removed
system.cpu.iq.iqSquashedOperandsExamined         6406                       # Number of squashed operands that are examined and possibly removed from graph
system.cpu.iq.issued_per_cycle::samples        546314                       # Number of insts issued each cycle
system.cpu.iq.issued_per_cycle::mean         2.308894                       # Number of insts issued each cycle
system.cpu.iq.issued_per_cycle::stdev        2.621936                       # Number of insts issued each cycle
system.cpu.iq.issued_per_cycle::underflows            0      0.00%      0.00% # Number of insts issued each cycle
system.cpu.iq.issued_per_cycle::0              228698     41.86%     41.86% # Number of insts issued each cycle
system.cpu.iq.issued_per_cycle::1               50844      9.31%     51.17% # Number of insts issued each cycle
system.cpu.iq.issued_per_cycle::2               59460     10.88%     62.05% # Number of insts issued each cycle
system.cpu.iq.issued_per_cycle::3               46862      8.58%     70.63% # Number of insts issued each cycle
system.cpu.iq.issued_per_cycle::4               30025      5.50%     76.13% # Number of insts issued each cycle
system.cpu.iq.issued_per_cycle::5               41511      7.60%     83.72% # Number of insts issued each cycle
system.cpu.iq.issued_per_cycle::6               33989      6.22%     89.95% # Number of insts issued each cycle
system.cpu.iq.issued_per_cycle::7               19958      3.65%     93.60% # Number of insts issued each cycle
system.cpu.iq.issued_per_cycle::8               34967      6.40%    100.00% # Number of insts issued each cycle
system.cpu.iq.issued_per_cycle::overflows            0      0.00%    100.00% # Number of insts issued each cycle
system.cpu.iq.issued_per_cycle::min_value            0                       # Number of insts issued each cycle
system.cpu.iq.issued_per_cycle::max_value            8                       # Number of insts issued each cycle
system.cpu.iq.issued_per_cycle::total          546314                       # Number of insts issued each cycle
system.cpu.iq.rate                           2.086652                       # Inst issue rate
system.cpu.iq.vec_alu_accesses                  12549                       # Number of vector alu accesses
system.cpu.iq.vec_inst_queue_reads              25055                       # Number of vector instruction queue reads
system.cpu.iq.vec_inst_queue_wakeup_accesses        12469                       # Number of vector instruction queue wakeup accesses
system.cpu.iq.vec_inst_queue_writes             12636                       # Number of vector instruction queue writes
system.cpu.itb.accesses                             0                       # DTB accesses
system.cpu.itb.align_faults                         0                       # Number of TLB faults due to alignment restrictions
system.cpu.itb.domain_faults                        0                       # Number of TLB faults due to domain restrictions
system.cpu.itb.flush_entries                        0                       # Number of entries that have been flushed from TLB
system.cpu.itb.flush_tlb                            0                       # Number of times complete TLB was flushed
system.cpu.itb.flush_tlb_asid                       0                       # Number of times TLB was flushed by ASID
system.cpu.itb.flush_tlb_mva                        0                       # Number of times TLB was flushed by MVA
system.cpu.itb.flush_tlb_mva_asid                   0                       # Number of times TLB was flushed by MVA & ASID
system.cpu.itb.hits                                 0                       # DTB hits
system.cpu.itb.inst_accesses                        0                       # ITB inst accesses
system.cpu.itb.inst_hits                            0                       # ITB inst hits
system.cpu.itb.inst_misses                          0                       # ITB inst misses
system.cpu.itb.misses                               0                       # DTB misses
system.cpu.itb.perms_faults                         0                       # Number of TLB faults due to permissions restrictions
system.cpu.itb.prefetch_faults                      0                       # Number of TLB faults due to prefetch
system.cpu.itb.read_accesses                        0                       # DTB read accesses
system.cpu.itb.read_hits                            0                       # DTB read hits
system.cpu.itb.read_misses                          0                       # DTB read misses
system.cpu.itb.stage2_mmu.stage2_tlb.accesses            0                       # DTB accesses
system.cpu.itb.stage2_mmu.stage2_tlb.align_faults            0                       # Number of TLB faults due to alignment restrictions
system.cpu.itb.stage2_mmu.stage2_tlb.domain_faults            0                       # Number of TLB faults due to domain restrictions
system.cpu.itb.stage2_mmu.stage2_tlb.flush_entries            0                       # Number of entries that have been flushed from TLB
system.cpu.itb.stage2_mmu.stage2_tlb.flush_tlb            0                       # Number of times complete TLB was flushed
system.cpu.itb.stage2_mmu.stage2_tlb.flush_tlb_asid            0                       # Number of times TLB was flushed by ASID
system.cpu.itb.stage2_mmu.stage2_tlb.flush_tlb_mva            0                       # Number of times TLB was flushed by MVA
system.cpu.itb.stage2_mmu.stage2_tlb.flush_tlb_mva_asid            0                       # Number of times TLB was flushed by MVA & ASID
system.cpu.itb.stage2_mmu.stage2_tlb.hits            0                       # DTB hits
system.cpu.itb.stage2_mmu.stage2_tlb.inst_accesses            0                       # ITB inst accesses
system.cpu.itb.stage2_mmu.stage2_tlb.inst_hits            0                       # ITB inst hits
system.cpu.itb.stage2_mmu.stage2_tlb.inst_misses            0                       # ITB inst misses
system.cpu.itb.stage2_mmu.stage2_tlb.misses            0                       # DTB misses
system.cpu.itb.stage2_mmu.stage2_tlb.perms_faults            0                       # Number of TLB faults due to permissions restrictions
system.cpu.itb.stage2_mmu.stage2_tlb.prefetch_faults            0                       # Number of TLB faults due to prefetch
system.cpu.itb.stage2_mmu.stage2_tlb.read_accesses            0                       # DTB read accesses
system.cpu.itb.stage2_mmu.stage2_tlb.read_hits            0                       # DTB read hits
system.cpu.itb.stage2_mmu.stage2_tlb.read_misses            0                       # DTB read misses
system.cpu.itb.stage2_mmu.stage2_tlb.walker.walkRequestOrigin_Requested::Data            0                       # Table walker requests started/completed, data/inst
system.cpu.itb.stage2_mmu.stage2_tlb.walker.walkRequestOrigin_Requested::Inst            0                       # Table walker requests started/completed, data/inst
system.cpu.itb.stage2_mmu.stage2_tlb.walker.walkRequestOrigin_Requested::total            0                       # Table walker requests started/completed, data/inst
system.cpu.itb.stage2_mmu.stage2_tlb.walker.walkRequestOrigin_Completed::Data            0                       # Table walker requests started/completed, data/inst
system.cpu.itb.stage2_mmu.stage2_tlb.walker.walkRequestOrigin_Completed::Inst            0                       # Table walker requests started/completed, data/inst
system.cpu.itb.stage2_mmu.stage2_tlb.walker.walkRequestOrigin_Completed::total            0                       # Table walker requests started/completed, data/inst
system.cpu.itb.stage2_mmu.stage2_tlb.walker.walkRequestOrigin::total            0                       # Table walker requests started/completed, data/inst
system.cpu.itb.stage2_mmu.stage2_tlb.walker.walks            0                       # Table walker walks requested
system.cpu.itb.stage2_mmu.stage2_tlb.write_accesses            0                       # DTB write accesses
system.cpu.itb.stage2_mmu.stage2_tlb.write_hits            0                       # DTB write hits
system.cpu.itb.stage2_mmu.stage2_tlb.write_misses            0                       # DTB write misses
system.cpu.itb.walker.walkRequestOrigin_Requested::Data            0                       # Table walker requests started/completed, data/inst
system.cpu.itb.walker.walkRequestOrigin_Requested::Inst            0                       # Table walker requests started/completed, data/inst
system.cpu.itb.walker.walkRequestOrigin_Requested::total            0                       # Table walker requests started/completed, data/inst
system.cpu.itb.walker.walkRequestOrigin_Completed::Data            0                       # Table walker requests started/completed, data/inst
system.cpu.itb.walker.walkRequestOrigin_Completed::Inst            0                       # Table walker requests started/completed, data/inst
system.cpu.itb.walker.walkRequestOrigin_Completed::total            0                       # Table walker requests started/completed, data/inst
system.cpu.itb.walker.walkRequestOrigin::total            0                       # Table walker requests started/completed, data/inst
system.cpu.itb.walker.walks                         0                       # Table walker walks requested
system.cpu.itb.write_accesses                       0                       # DTB write accesses
system.cpu.itb.write_hits                           0                       # DTB write hits
system.cpu.itb.write_misses                         0                       # DTB write misses
system.cpu.memDep0.conflictingLoads               136                       # Number of conflicting loads.
system.cpu.memDep0.conflictingStores             3127                       # Number of conflicting stores.
system.cpu.memDep0.insertedLoads               201333                       # Number of loads inserted to the mem dependence unit.
system.cpu.memDep0.insertedStores              231254                       # Number of stores inserted to the mem dependence unit.
system.cpu.misc_regfile_reads                  879286                       # number of misc regfile reads
system.cpu.misc_regfile_writes                   9273                       # number of misc regfile writes
system.cpu.numCycles                           604500                       # number of cpu cycles simulated
system.cpu.numWorkItemsCompleted                    0                       # number of work items this cpu completed
system.cpu.numWorkItemsStarted                      0                       # number of work items this cpu started
system.cpu.rename.BlockCycles                    1939                       # Number of cycles rename is blocking
system.cpu.rename.CommittedMaps               1187393                       # Number of HB maps that are committed
system.cpu.rename.IQFullEvents                     46                       # Number of times rename has blocked due to IQ full
system.cpu.rename.IdleCycles                    72400                       # Number of cycles rename is idle
system.cpu.rename.LQFullEvents                      4                       # Number of times rename has blocked due to LQ full
system.cpu.rename.ROBFullEvents                     3                       # Number of times rename has blocked due to ROB full
system.cpu.rename.RenameLookups               1882005                       # Number of register rename lookups that rename has made
system.cpu.rename.RenamedInsts                1266201                       # Number of instructions processed by rename
system.cpu.rename.RenamedOperands             1199914                       # Number of destination operands rename has renamed
system.cpu.rename.RunCycles                    161399                       # Number of cycles rename is running
system.cpu.rename.SQFullEvents                   1045                       # Number of times rename has blocked due to SQ full
system.cpu.rename.SquashCycles                    655                       # Number of cycles rename is squashing
system.cpu.rename.UnblockCycles                 31540                       # Number of cycles rename is unblocking
system.cpu.rename.UndoneMaps                    12467                       # Number of HB maps that are undone due to squashing
system.cpu.rename.int_rename_lookups          1499310                       # Number of integer rename lookups
system.cpu.rename.serializeStallCycles         278381                       # count of cycles rename stalled for serializing inst
system.cpu.rename.serializingInsts              18326                       # count of serializing insts renamed
system.cpu.rename.skidInsts                    155948                       # count of insts added to the skid buffer
system.cpu.rename.tempSerializingInsts             85                       # count of temporary serializing insts renamed
system.cpu.rename.vec_rename_lookups            15638                       # Number of vector rename lookups
system.cpu.rob.rob_reads                      1713797                       # The number of ROB reads
system.cpu.rob.rob_writes                     2529518                       # The number of ROB writes
system.cpu.timesIdled                             533                       # Number of times that the entire CPU went into an idle state and unscheduled itself
system.cpu.vec_regfile_reads                    15536                       # number of vector regfile reads
system.cpu.vec_regfile_writes                    9195                       # number of vector regfile writes
system.cpu.workload.numSyscalls                    13                       # Number of system calls
system.membus.snoop_filter.hit_multi_requests            0                       # Number of requests hitting in the snoop filter with multiple (>1) holders of the requested data.
system.membus.snoop_filter.hit_multi_snoops            0                       # Number of snoops hitting in the snoop filter with multiple (>1) holders of the requested data.
system.membus.snoop_filter.hit_single_requests            0                       # Number of requests hitting in the snoop filter with a single holder of the requested data.
system.membus.snoop_filter.hit_single_snoops            0                       # Number of snoops hitting in the snoop filter with a single holder of the requested data.
system.membus.snoop_filter.tot_requests           965                       # Total number of requests made to the snoop filter.
system.membus.snoop_filter.tot_snoops               0                       # Total number of snoops made to the snoop filter.
system.tol2bus.snoop_filter.hit_multi_requests            0                       # Number of requests hitting in the snoop filter with multiple (>1) holders of the requested data.
system.tol2bus.snoop_filter.hit_multi_snoops            0                       # Number of snoops hitting in the snoop filter with multiple (>1) holders of the requested data.
system.tol2bus.snoop_filter.hit_single_requests          329                       # Number of requests hitting in the snoop filter with a single holder of the requested data.
system.tol2bus.snoop_filter.hit_single_snoops            0                       # Number of snoops hitting in the snoop filter with a single holder of the requested data.
system.tol2bus.snoop_filter.tot_requests         1357                       # Total number of requests made to the snoop filter.
system.tol2bus.snoop_filter.tot_snoops              0                       # Total number of snoops made to the snoop filter.
system.membus.trans_dist::ReadResp                816                       # Transaction distribution
system.membus.trans_dist::ReadExReq               139                       # Transaction distribution
system.membus.trans_dist::ReadExResp              139                       # Transaction distribution
system.membus.trans_dist::ReadSharedReq           816                       # Transaction distribution
system.membus.trans_dist::InvalidateReq            10                       # Transaction distribution
system.membus.pkt_count_system.l2.mem_side::system.mem_ctrls.port         1920                       # Packet count per connected master and slave (bytes)
system.membus.pkt_count::total                   1920                       # Packet count per connected master and slave (bytes)
system.membus.pkt_size_system.l2.mem_side::system.mem_ctrls.port        61120                       # Cumulative packet size per connected master and slave (bytes)
system.membus.pkt_size::total                   61120                       # Cumulative packet size per connected master and slave (bytes)
system.membus.snoops                                0                       # Total snoops (count)
system.membus.snoopTraffic                          0                       # Total snoop traffic (bytes)
system.membus.snoop_fanout::samples               965                       # Request fanout histogram
system.membus.snoop_fanout::mean                    0                       # Request fanout histogram
system.membus.snoop_fanout::stdev                   0                       # Request fanout histogram
system.membus.snoop_fanout::underflows              0      0.00%      0.00% # Request fanout histogram
system.membus.snoop_fanout::0                     965    100.00%    100.00% # Request fanout histogram
system.membus.snoop_fanout::1                       0      0.00%    100.00% # Request fanout histogram
system.membus.snoop_fanout::overflows               0      0.00%    100.00% # Request fanout histogram
system.membus.snoop_fanout::min_value               0                       # Request fanout histogram
system.membus.snoop_fanout::max_value               0                       # Request fanout histogram
system.membus.snoop_fanout::total                 965                       # Request fanout histogram
system.membus.reqLayer0.occupancy             1200500                       # Layer occupancy (ticks)
system.membus.reqLayer0.utilization               0.4                       # Layer utilization (%)
system.membus.respLayer1.occupancy            5059250                       # Layer occupancy (ticks)
system.membus.respLayer1.utilization              1.7                       # Layer utilization (%)
system.membus.power_state.pwrStateResidencyTicks::UNDEFINED    302249500                       # Cumulative time (in ticks) in various power states
system.tol2bus.trans_dist::ReadResp               879                       # Transaction distribution
system.tol2bus.trans_dist::WritebackDirty           16                       # Transaction distribution
system.tol2bus.trans_dist::WritebackClean          303                       # Transaction distribution
system.tol2bus.trans_dist::CleanEvict               9                       # Transaction distribution
system.tol2bus.trans_dist::ReadExReq              140                       # Transaction distribution
system.tol2bus.trans_dist::ReadExResp             140                       # Transaction distribution
system.tol2bus.trans_dist::ReadCleanReq           765                       # Transaction distribution
system.tol2bus.trans_dist::ReadSharedReq          114                       # Transaction distribution
system.tol2bus.trans_dist::InvalidateReq           10                       # Transaction distribution
system.tol2bus.trans_dist::InvalidateResp           10                       # Transaction distribution
system.tol2bus.pkt_count_system.cpu.icache.mem_side::system.l2.cpu_side         1833                       # Packet count per connected master and slave (bytes)
system.tol2bus.pkt_count_system.cpu.dcache.mem_side::system.l2.cpu_side          553                       # Packet count per connected master and slave (bytes)
system.tol2bus.pkt_count::total                  2386                       # Packet count per connected master and slave (bytes)
system.tol2bus.pkt_size_system.cpu.icache.mem_side::system.l2.cpu_side        68352                       # Cumulative packet size per connected master and slave (bytes)
system.tol2bus.pkt_size_system.cpu.dcache.mem_side::system.l2.cpu_side        17280                       # Cumulative packet size per connected master and slave (bytes)
system.tol2bus.pkt_size::total                  85632                       # Cumulative packet size per connected master and slave (bytes)
system.tol2bus.snoops                               0                       # Total snoops (count)
system.tol2bus.snoopTraffic                         0                       # Total snoop traffic (bytes)
system.tol2bus.snoop_fanout::samples             1029                       # Request fanout histogram
system.tol2bus.snoop_fanout::mean            0.000972                       # Request fanout histogram
system.tol2bus.snoop_fanout::stdev           0.031174                       # Request fanout histogram
system.tol2bus.snoop_fanout::underflows             0      0.00%      0.00% # Request fanout histogram
system.tol2bus.snoop_fanout::0                   1028     99.90%     99.90% # Request fanout histogram
system.tol2bus.snoop_fanout::1                      1      0.10%    100.00% # Request fanout histogram
system.tol2bus.snoop_fanout::2                      0      0.00%    100.00% # Request fanout histogram
system.tol2bus.snoop_fanout::overflows              0      0.00%    100.00% # Request fanout histogram
system.tol2bus.snoop_fanout::min_value              0                       # Request fanout histogram
system.tol2bus.snoop_fanout::max_value              1                       # Request fanout histogram
system.tol2bus.snoop_fanout::total               1029                       # Request fanout histogram
system.tol2bus.reqLayer0.occupancy             997500                       # Layer occupancy (ticks)
system.tol2bus.reqLayer0.utilization              0.3                       # Layer utilization (%)
system.tol2bus.respLayer1.occupancy            386000                       # Layer occupancy (ticks)
system.tol2bus.respLayer1.utilization             0.1                       # Layer utilization (%)
system.tol2bus.respLayer0.occupancy           1147500                       # Layer occupancy (ticks)
system.tol2bus.respLayer0.utilization             0.4                       # Layer utilization (%)
system.tol2bus.power_state.pwrStateResidencyTicks::UNDEFINED    302249500                       # Cumulative time (in ticks) in various power states
system.voltage_domain.voltage                       1                       # Voltage in Volts
system.clk_domain.clock                          1000                       # Clock period in ticks
system.l2.demand_hits::.cpu.inst                   63                       # number of demand (read+write) hits
system.l2.demand_hits::.cpu.data                    1                       # number of demand (read+write) hits
system.l2.demand_hits::total                       64                       # number of demand (read+write) hits
system.l2.overall_hits::.cpu.inst                  63                       # number of overall hits
system.l2.overall_hits::.cpu.data                   1                       # number of overall hits
system.l2.overall_hits::total                      64                       # number of overall hits
system.l2.demand_misses::.cpu.inst                702                       # number of demand (read+write) misses
system.l2.demand_misses::.cpu.data                253                       # number of demand (read+write) misses
system.l2.demand_misses::total                    955                       # number of demand (read+write) misses
system.l2.overall_misses::.cpu.inst               702                       # number of overall misses
system.l2.overall_misses::.cpu.data               253                       # number of overall misses
system.l2.overall_misses::total                   955                       # number of overall misses
system.l2.demand_miss_latency::.cpu.inst     55600500                       # number of demand (read+write) miss cycles
system.l2.demand_miss_latency::.cpu.data     21544500                       # number of demand (read+write) miss cycles
system.l2.demand_miss_latency::total         77145000                       # number of demand (read+write) miss cycles
system.l2.overall_miss_latency::.cpu.inst     55600500                       # number of overall miss cycles
system.l2.overall_miss_latency::.cpu.data     21544500                       # number of overall miss cycles
system.l2.overall_miss_latency::total        77145000                       # number of overall miss cycles
system.l2.demand_accesses::.cpu.inst              765                       # number of demand (read+write) accesses
system.l2.demand_accesses::.cpu.data              254                       # number of demand (read+write) accesses
system.l2.demand_accesses::total                 1019                       # number of demand (read+write) accesses
system.l2.overall_accesses::.cpu.inst             765                       # number of overall (read+write) accesses
system.l2.overall_accesses::.cpu.data             254                       # number of overall (read+write) accesses
system.l2.overall_accesses::total                1019                       # number of overall (read+write) accesses
system.l2.demand_miss_rate::.cpu.inst        0.917647                       # miss rate for demand accesses
system.l2.demand_miss_rate::.cpu.data        0.996063                       # miss rate for demand accesses
system.l2.demand_miss_rate::total            0.937193                       # miss rate for demand accesses
system.l2.overall_miss_rate::.cpu.inst       0.917647                       # miss rate for overall accesses
system.l2.overall_miss_rate::.cpu.data       0.996063                       # miss rate for overall accesses
[...]
system.cpu.icache.tags.occ_task_id_blocks::1024          462                       # Occupied blocks per task id
system.cpu.icache.tags.age_task_id_blocks_1024::2          462                       # Occupied blocks per task id
system.cpu.icache.tags.occ_task_id_percent::1024     0.902344                       # Percentage of cache occupancy per task id
system.cpu.icache.tags.tag_accesses            247147                       # Number of tag accesses
system.cpu.icache.tags.data_accesses           247147                       # Number of data accesses
system.cpu.icache.tags.power_state.pwrStateResidencyTicks::UNDEFINED    302249500                       # Cumulative time (in ticks) in various power states
system.cpu.dtb.walker.power_state.pwrStateResidencyTicks::UNDEFINED    302249500                       # Cumulative time (in ticks) in various power states
system.cpu.dtb.stage2_mmu.stage2_tlb.walker.power_state.pwrStateResidencyTicks::UNDEFINED    302249500                       # Cumulative time (in ticks) in various power states
system.cpu.itb.walker.power_state.pwrStateResidencyTicks::UNDEFINED    302249500                       # Cumulative time (in ticks) in various power states
system.cpu.itb.stage2_mmu.stage2_tlb.walker.power_state.pwrStateResidencyTicks::UNDEFINED    302249500                       # Cumulative time (in ticks) in various power states
system.cpu.dcache.demand_hits::.cpu.data       429766                       # number of demand (read+write) hits
system.cpu.dcache.demand_hits::total           429766                       # number of demand (read+write) hits
system.cpu.dcache.overall_hits::.cpu.data       429774                       # number of overall hits
system.cpu.dcache.overall_hits::total          429774                       # number of overall hits
system.cpu.dcache.demand_misses::.cpu.data          871                       # number of demand (read+write) misses
system.cpu.dcache.demand_misses::total            871                       # number of demand (read+write) misses
system.cpu.dcache.overall_misses::.cpu.data          873                       # number of overall misses
system.cpu.dcache.overall_misses::total           873                       # number of overall misses
system.cpu.dcache.demand_miss_latency::.cpu.data     61890955                       # number of demand (read+write) miss cycles
system.cpu.dcache.demand_miss_latency::total     61890955                       # number of demand (read+write) miss cycles
system.cpu.dcache.overall_miss_latency::.cpu.data     61890955                       # number of overall miss cycles
system.cpu.dcache.overall_miss_latency::total     61890955                       # number of overall miss cycles
system.cpu.dcache.demand_accesses::.cpu.data       430637                       # number of demand (read+write) accesses
system.cpu.dcache.demand_accesses::total       430637                       # number of demand (read+write) accesses
system.cpu.dcache.overall_accesses::.cpu.data       430647                       # number of overall (read+write) accesses
system.cpu.dcache.overall_accesses::total       430647                       # number of overall (read+write) accesses
system.cpu.dcache.demand_miss_rate::.cpu.data     0.002023                       # miss rate for demand accesses
system.cpu.dcache.demand_miss_rate::total     0.002023                       # miss rate for demand accesses
system.cpu.dcache.overall_miss_rate::.cpu.data     0.002027                       # miss rate for overall accesses
system.cpu.dcache.overall_miss_rate::total     0.002027                       # miss rate for overall accesses
system.cpu.dcache.demand_avg_miss_latency::.cpu.data 71057.353617                       # average overall miss latency
system.cpu.dcache.demand_avg_miss_latency::total 71057.353617                       # average overall miss latency
system.cpu.dcache.overall_avg_miss_latency::.cpu.data 70894.564719                       # average overall miss latency
system.cpu.dcache.overall_avg_miss_latency::total 70894.564719                       # average overall miss latency
system.cpu.dcache.blocked_cycles::no_mshrs         2750                       # number of cycles access was blocked
system.cpu.dcache.blocked_cycles::no_targets            0                       # number of cycles access was blocked
system.cpu.dcache.blocked::no_mshrs                62                       # number of cycles access was blocked
system.cpu.dcache.blocked::no_targets               0                       # number of cycles access was blocked
system.cpu.dcache.avg_blocked_cycles::no_mshrs    44.354839                       # average number of cycles each access was blocked
system.cpu.dcache.avg_blocked_cycles::no_targets          nan                       # average number of cycles each access was blocked
system.cpu.dcache.writebacks::.writebacks           16                       # number of writebacks
system.cpu.dcache.writebacks::total                16                       # number of writebacks
system.cpu.dcache.demand_mshr_hits::.cpu.data          609                       # number of demand (read+write) MSHR hits
system.cpu.dcache.demand_mshr_hits::total          609                       # number of demand (read+write) MSHR hits
system.cpu.dcache.overall_mshr_hits::.cpu.data          609                       # number of overall MSHR hits
system.cpu.dcache.overall_mshr_hits::total          609                       # number of overall MSHR hits
system.cpu.dcache.demand_mshr_misses::.cpu.data          262                       # number of demand (read+write) MSHR misses
system.cpu.dcache.demand_mshr_misses::total          262                       # number of demand (read+write) MSHR misses
system.cpu.dcache.overall_mshr_misses::.cpu.data          264                       # number of overall MSHR misses
system.cpu.dcache.overall_mshr_misses::total          264                       # number of overall MSHR misses
system.cpu.dcache.demand_mshr_miss_latency::.cpu.data     22065995                       # number of demand (read+write) MSHR miss cycles
system.cpu.dcache.demand_mshr_miss_latency::total     22065995                       # number of demand (read+write) MSHR miss cycles
system.cpu.dcache.overall_mshr_miss_latency::.cpu.data     22250495                       # number of overall MSHR miss cycles
system.cpu.dcache.overall_mshr_miss_latency::total     22250495                       # number of overall MSHR miss cycles
system.cpu.dcache.demand_mshr_miss_rate::.cpu.data     0.000608                       # mshr miss rate for demand accesses
system.cpu.dcache.demand_mshr_miss_rate::total     0.000608                       # mshr miss rate for demand accesses
system.cpu.dcache.overall_mshr_miss_rate::.cpu.data     0.000613                       # mshr miss rate for overall accesses
system.cpu.dcache.overall_mshr_miss_rate::total     0.000613                       # mshr miss rate for overall accesses
system.cpu.dcache.demand_avg_mshr_miss_latency::.cpu.data 84221.354962                       # average overall mshr miss latency
system.cpu.dcache.demand_avg_mshr_miss_latency::total 84221.354962                       # average overall mshr miss latency
system.cpu.dcache.overall_avg_mshr_miss_latency::.cpu.data 84282.178030                       # average overall mshr miss latency
system.cpu.dcache.overall_avg_mshr_miss_latency::total 84282.178030                       # average overall mshr miss latency
system.cpu.dcache.replacements                     25                       # number of replacements
system.cpu.dcache.ReadReq_hits::.cpu.data       200355                       # number of ReadReq hits
system.cpu.dcache.ReadReq_hits::total          200355                       # number of ReadReq hits
system.cpu.dcache.ReadReq_misses::.cpu.data          238                       # number of ReadReq misses
system.cpu.dcache.ReadReq_misses::total           238                       # number of ReadReq misses
system.cpu.dcache.ReadReq_miss_latency::.cpu.data     19406000                       # number of ReadReq miss cycles
system.cpu.dcache.ReadReq_miss_latency::total     19406000                       # number of ReadReq miss cycles
system.cpu.dcache.ReadReq_accesses::.cpu.data       200593                       # number of ReadReq accesses(hits+misses)
system.cpu.dcache.ReadReq_accesses::total       200593                       # number of ReadReq accesses(hits+misses)
system.cpu.dcache.ReadReq_miss_rate::.cpu.data     0.001186                       # miss rate for ReadReq accesses
system.cpu.dcache.ReadReq_miss_rate::total     0.001186                       # miss rate for ReadReq accesses
system.cpu.dcache.ReadReq_avg_miss_latency::.cpu.data 81537.815126                       # average ReadReq miss latency
system.cpu.dcache.ReadReq_avg_miss_latency::total 81537.815126                       # average ReadReq miss latency
system.cpu.dcache.ReadReq_mshr_hits::.cpu.data          126                       # number of ReadReq MSHR hits
system.cpu.dcache.ReadReq_mshr_hits::total          126                       # number of ReadReq MSHR hits
system.cpu.dcache.ReadReq_mshr_misses::.cpu.data          112                       # number of ReadReq MSHR misses
system.cpu.dcache.ReadReq_mshr_misses::total          112                       # number of ReadReq MSHR misses
system.cpu.dcache.ReadReq_mshr_miss_latency::.cpu.data     10272000                       # number of ReadReq MSHR miss cycles
system.cpu.dcache.ReadReq_mshr_miss_latency::total     10272000                       # number of ReadReq MSHR miss cycles
system.cpu.dcache.ReadReq_mshr_miss_rate::.cpu.data     0.000558                       # mshr miss rate for ReadReq accesses
system.cpu.dcache.ReadReq_mshr_miss_rate::total     0.000558                       # mshr miss rate for ReadReq accesses
system.cpu.dcache.ReadReq_avg_mshr_miss_latency::.cpu.data 91714.285714                       # average ReadReq mshr miss latency
system.cpu.dcache.ReadReq_avg_mshr_miss_latency::total 91714.285714                       # average ReadReq mshr miss latency
system.cpu.dcache.WriteReq_hits::.cpu.data       229411                       # number of WriteReq hits
system.cpu.dcache.WriteReq_hits::total         229411                       # number of WriteReq hits
system.cpu.dcache.WriteReq_misses::.cpu.data          626                       # number of WriteReq misses
system.cpu.dcache.WriteReq_misses::total          626                       # number of WriteReq misses
system.cpu.dcache.WriteReq_miss_latency::.cpu.data     42262457                       # number of WriteReq miss cycles
system.cpu.dcache.WriteReq_miss_latency::total     42262457                       # number of WriteReq miss cycles
system.cpu.dcache.WriteReq_accesses::.cpu.data       230037                       # number of WriteReq accesses(hits+misses)
system.cpu.dcache.WriteReq_accesses::total       230037                       # number of WriteReq accesses(hits+misses)
system.cpu.dcache.WriteReq_miss_rate::.cpu.data     0.002721                       # miss rate for WriteReq accesses
system.cpu.dcache.WriteReq_miss_rate::total     0.002721                       # miss rate for WriteReq accesses
system.cpu.dcache.WriteReq_avg_miss_latency::.cpu.data 67511.912141                       # average WriteReq miss latency
system.cpu.dcache.WriteReq_avg_miss_latency::total 67511.912141                       # average WriteReq miss latency
system.cpu.dcache.WriteReq_mshr_hits::.cpu.data          483                       # number of WriteReq MSHR hits
system.cpu.dcache.WriteReq_mshr_hits::total          483                       # number of WriteReq MSHR hits
system.cpu.dcache.WriteReq_mshr_misses::.cpu.data          143                       # number of WriteReq MSHR misses
system.cpu.dcache.WriteReq_mshr_misses::total          143                       # number of WriteReq MSHR misses
system.cpu.dcache.WriteReq_mshr_miss_latency::.cpu.data     11578497                       # number of WriteReq MSHR miss cycles
system.cpu.dcache.WriteReq_mshr_miss_latency::total     11578497                       # number of WriteReq MSHR miss cycles
system.cpu.dcache.WriteReq_mshr_miss_rate::.cpu.data     0.000622                       # mshr miss rate for WriteReq accesses
system.cpu.dcache.WriteReq_mshr_miss_rate::total     0.000622                       # mshr miss rate for WriteReq accesses
system.cpu.dcache.WriteReq_avg_mshr_miss_latency::.cpu.data 80968.510490                       # average WriteReq mshr miss latency
system.cpu.dcache.WriteReq_avg_mshr_miss_latency::total 80968.510490                       # average WriteReq mshr miss latency
system.cpu.dcache.SoftPFReq_hits::.cpu.data            8                       # number of SoftPFReq hits
system.cpu.dcache.SoftPFReq_hits::total             8                       # number of SoftPFReq hits
system.cpu.dcache.SoftPFReq_misses::.cpu.data            2                       # number of SoftPFReq misses
system.cpu.dcache.SoftPFReq_misses::total            2                       # number of SoftPFReq misses
system.cpu.dcache.SoftPFReq_accesses::.cpu.data           10                       # number of SoftPFReq accesses(hits+misses)
system.cpu.dcache.SoftPFReq_accesses::total           10                       # number of SoftPFReq accesses(hits+misses)
system.cpu.dcache.SoftPFReq_miss_rate::.cpu.data     0.200000                       # miss rate for SoftPFReq accesses
system.cpu.dcache.SoftPFReq_miss_rate::total     0.200000                       # miss rate for SoftPFReq accesses
system.cpu.dcache.SoftPFReq_mshr_misses::.cpu.data            2                       # number of SoftPFReq MSHR misses
system.cpu.dcache.SoftPFReq_mshr_misses::total            2                       # number of SoftPFReq MSHR misses
system.cpu.dcache.SoftPFReq_mshr_miss_latency::.cpu.data       184500                       # number of SoftPFReq MSHR miss cycles
system.cpu.dcache.SoftPFReq_mshr_miss_latency::total       184500                       # number of SoftPFReq MSHR miss cycles
system.cpu.dcache.SoftPFReq_mshr_miss_rate::.cpu.data     0.200000                       # mshr miss rate for SoftPFReq accesses
system.cpu.dcache.SoftPFReq_mshr_miss_rate::total     0.200000                       # mshr miss rate for SoftPFReq accesses
system.cpu.dcache.SoftPFReq_avg_mshr_miss_latency::.cpu.data        92250                       # average SoftPFReq mshr miss latency
system.cpu.dcache.SoftPFReq_avg_mshr_miss_latency::total        92250                       # average SoftPFReq mshr miss latency
system.cpu.dcache.WriteLineReq_misses::.cpu.data            7                       # number of WriteLineReq misses
system.cpu.dcache.WriteLineReq_misses::total            7                       # number of WriteLineReq misses
system.cpu.dcache.WriteLineReq_miss_latency::.cpu.data       222498                       # number of WriteLineReq miss cycles
system.cpu.dcache.WriteLineReq_miss_latency::total       222498                       # number of WriteLineReq miss cycles
system.cpu.dcache.WriteLineReq_accesses::.cpu.data            7                       # number of WriteLineReq accesses(hits+misses)
system.cpu.dcache.WriteLineReq_accesses::total            7                       # number of WriteLineReq accesses(hits+misses)
system.cpu.dcache.WriteLineReq_miss_rate::.cpu.data            1                       # miss rate for WriteLineReq accesses
system.cpu.dcache.WriteLineReq_miss_rate::total            1                       # miss rate for WriteLineReq accesses
system.cpu.dcache.WriteLineReq_avg_miss_latency::.cpu.data 31785.428571                       # average WriteLineReq miss latency
system.cpu.dcache.WriteLineReq_avg_miss_latency::total 31785.428571                       # average WriteLineReq miss latency
system.cpu.dcache.WriteLineReq_mshr_misses::.cpu.data            7                       # number of WriteLineReq MSHR misses
system.cpu.dcache.WriteLineReq_mshr_misses::total            7                       # number of WriteLineReq MSHR misses
system.cpu.dcache.WriteLineReq_mshr_miss_latency::.cpu.data       215498                       # number of WriteLineReq MSHR miss cycles
system.cpu.dcache.WriteLineReq_mshr_miss_latency::total       215498                       # number of WriteLineReq MSHR miss cycles
system.cpu.dcache.WriteLineReq_mshr_miss_rate::.cpu.data            1                       # mshr miss rate for WriteLineReq accesses
system.cpu.dcache.WriteLineReq_mshr_miss_rate::total            1                       # mshr miss rate for WriteLineReq accesses
system.cpu.dcache.WriteLineReq_avg_mshr_miss_latency::.cpu.data 30785.428571                       # average WriteLineReq mshr miss latency
system.cpu.dcache.WriteLineReq_avg_mshr_miss_latency::total 30785.428571                       # average WriteLineReq mshr miss latency
system.cpu.dcache.LoadLockedReq_hits::.cpu.data           55                       # number of LoadLockedReq hits
system.cpu.dcache.LoadLockedReq_hits::total           55                       # number of LoadLockedReq hits
system.cpu.dcache.LoadLockedReq_accesses::.cpu.data           55                       # number of LoadLockedReq accesses(hits+misses)
system.cpu.dcache.LoadLockedReq_accesses::total           55                       # number of LoadLockedReq accesses(hits+misses)
system.cpu.dcache.StoreCondReq_hits::.cpu.data           46                       # number of StoreCondReq hits
system.cpu.dcache.StoreCondReq_hits::total           46                       # number of StoreCondReq hits
system.cpu.dcache.StoreCondReq_accesses::.cpu.data           46                       # number of StoreCondReq accesses(hits+misses)
system.cpu.dcache.StoreCondReq_accesses::total           46                       # number of StoreCondReq accesses(hits+misses)
system.cpu.dcache.power_state.pwrStateResidencyTicks::UNDEFINED    302249500                       # Cumulative time (in ticks) in various power states
system.cpu.dcache.tags.tagsinuse           228.156978                       # Cycle average of tags in use
system.cpu.dcache.tags.total_refs              430139                       # Total number of references to valid blocks.
system.cpu.dcache.tags.sampled_refs               264                       # Sample count of references to valid blocks.
system.cpu.dcache.tags.avg_refs           1629.314394                       # Average number of references to valid blocks.
system.cpu.dcache.tags.warmup_cycle            176500                       # Cycle when the warmup percentage was hit.
system.cpu.dcache.tags.occ_blocks::.cpu.data   228.156978                       # Average occupied blocks per requestor
system.cpu.dcache.tags.occ_percent::.cpu.data     0.445619                       # Average percentage of cache occupancy
system.cpu.dcache.tags.occ_percent::total     0.445619                       # Average percentage of cache occupancy
system.cpu.dcache.tags.occ_task_id_blocks::1024          239                       # Occupied blocks per task id
system.cpu.dcache.tags.age_task_id_blocks_1024::2          239                       # Occupied blocks per task id
system.cpu.dcache.tags.occ_task_id_percent::1024     0.466797                       # Percentage of cache occupancy per task id
system.cpu.dcache.tags.tag_accesses            861760                       # Number of tag accesses
system.cpu.dcache.tags.data_accesses           861760                       # Number of data accesses
system.cpu.dcache.tags.power_state.pwrStateResidencyTicks::UNDEFINED    302249500                       # Cumulative time (in ticks) in various power states
system.cpu.power_state.pwrStateResidencyTicks::ON    302249500                       # Cumulative time (in ticks) in various power states

---------- End Simulation Statistics   ----------
