
---------- Begin Simulation Statistics ----------
final_tick                                  396873500                       # Number of ticks from beginning of simulation (restored from checkpoints and never reset)
host_inst_rate                                 104460                       # Simulator instruction rate (inst/s)
host_mem_usage                                 850184                       # Number of bytes of host memory used
host_op_rate                                   108589                       # Simulator op (including micro ops) rate (op/s)
host_seconds                                     4.79                       # Real time elapsed on the host
host_tick_rate                               82911353                       # Simulator tick rate (ticks/s)
sim_freq                                 1000000000000                       # Frequency of simulated ticks
sim_insts                                      500000                       # Number of instructions simulated
sim_ops                                        519782                       # Number of ops (including micro ops) simulated
sim_seconds                                  0.000397                       # Number of seconds simulated
sim_ticks                                   396873500                       # Number of ticks simulated
system.cpu.branchPred.BTBCorrect                    0                       # Number of correct BTB predictions (this stat may not work properly.
system.cpu.branchPred.BTBHitPct             96.887755                       # BTB Hit Percentage
system.cpu.branchPred.BTBHits                   36081                       # Number of BTB hits
system.cpu.branchPred.BTBLookups                37240                       # Number of BTB lookups
system.cpu.branchPred.RASInCorrect                  2                       # Number of incorrect RAS predictions.
system.cpu.branchPred.condIncorrect              1229                       # Number of conditional branches incorrect
system.cpu.branchPred.condPredicted             25550                       # Number of conditional branches predicted
system.cpu.branchPred.indirectHits                 84                       # Number of indirect target hits.
system.cpu.branchPred.indirectLookups             293                       # Number of indirect predictor lookups.
system.cpu.branchPred.indirectMisses              209                       # Number of indirect misses.
system.cpu.branchPred.lookups                   77086                       # Number of BP lookups
system.cpu.branchPred.usedRAS                   25137                       # Number of times the RAS was used to get a target.
system.cpu.branchPredindirectMispredicted           94                       # Number of mispredicted indirect branches.
system.cpu.cc_regfile_reads                     38886                       # number of cc regfile reads
system.cpu.cc_regfile_writes                    38625                       # number of cc regfile writes
system.cpu.commit.amos                              0                       # Number of atomic instructions committed
system.cpu.commit.branchMispredicts               923                       # The number of times a branch was mispredicted
system.cpu.commit.branches                      46517                       # Number of branches committed
system.cpu.commit.bw_lim_events                 32601                       # number cycles where commit BW limit reached
system.cpu.commit.commitNonSpecStalls             169                       # The number of times commit has been forced to stall to communicate backwards
system.cpu.commit.commitSquashedInsts          254979                       # The number of squashed insts skipped by commit
system.cpu.commit.committedInsts               500214                       # Number of instructions committed
system.cpu.commit.committedOps                 519996                       # Number of ops (including micro ops) committed
system.cpu.commit.committed_per_cycle::samples       712626                       # Number of insts commited each cycle
system.cpu.commit.committed_per_cycle::mean     0.729690                       # Number of insts commited each cycle
system.cpu.commit.committed_per_cycle::stdev     1.834849                       # Number of insts commited each cycle
system.cpu.commit.committed_per_cycle::underflows            0      0.00%      0.00% # Number of insts commited each cycle
system.cpu.commit.committed_per_cycle::0       529402     74.29%     74.29% # Number of insts commited each cycle
system.cpu.commit.committed_per_cycle::1        97229     13.64%     87.93% # Number of insts commited each cycle
system.cpu.commit.committed_per_cycle::2        30046      4.22%     92.15% # Number of insts commited each cycle
system.cpu.commit.committed_per_cycle::3         5115      0.72%     92.87% # Number of insts commited each cycle
system.cpu.commit.committed_per_cycle::4        10395      1.46%     94.33% # Number of insts commited each cycle
system.cpu.commit.committed_per_cycle::5         3664      0.51%     94.84% # Number of insts commited each cycle
system.cpu.commit.committed_per_cycle::6         2596      0.36%     95.20% # Number of insts commited each cycle
system.cpu.commit.committed_per_cycle::7         1578      0.22%     95.43% # Number of insts commited each cycle
system.cpu.commit.committed_per_cycle::8        32601      4.57%    100.00% # Number of insts commited each cycle
system.cpu.commit.committed_per_cycle::overflows            0      0.00%    100.00% # Number of insts commited each cycle
system.cpu.commit.committed_per_cycle::min_value            0                       # Number of insts commited each cycle
system.cpu.commit.committed_per_cycle::max_value            8                       # Number of insts commited each cycle
system.cpu.commit.committed_per_cycle::total       712626                       # Number of insts commited each cycle
system.cpu.commit.fp_insts                          0                       # Number of committed floating point instructions.
system.cpu.commit.function_calls                15117                       # Number of function calls committed.
system.cpu.commit.int_insts                    508795                       # Number of committed integer instructions.
system.cpu.commit.loads                         80724                       # Number of loads committed
system.cpu.commit.membars                         142                       # Number of memory barriers committed
system.cpu.commit.op_class_0::No_OpClass           35      0.01%      0.01% # Class of committed instruction
system.cpu.commit.op_class_0::IntAlu           264515     50.87%     50.88% # Class of committed instruction
system.cpu.commit.op_class_0::IntMult           76922     14.79%     65.67% # Class of committed instruction
system.cpu.commit.op_class_0::IntDiv            29279      5.63%     71.30% # Class of committed instruction
system.cpu.commit.op_class_0::FloatAdd              0      0.00%     71.30% # Class of committed instruction
system.cpu.commit.op_class_0::FloatCmp              0      0.00%     71.30% # Class of committed instruction
system.cpu.commit.op_class_0::FloatCvt              0      0.00%     71.30% # Class of committed instruction
system.cpu.commit.op_class_0::FloatMult             0      0.00%     71.30% # Class of committed instruction
system.cpu.commit.op_class_0::FloatMultAcc            0      0.00%     71.30% # Class of committed instruction
system.cpu.commit.op_class_0::FloatDiv              0      0.00%     71.30% # Class of committed instruction
system.cpu.commit.op_class_0::FloatMisc             0      0.00%     71.30% # Class of committed instruction
system.cpu.commit.op_class_0::FloatSqrt             0      0.00%     71.30% # Class of committed instruction
system.cpu.commit.op_class_0::SimdAdd              83      0.02%     71.31% # Class of committed instruction
system.cpu.commit.op_class_0::SimdAddAcc            0      0.00%     71.31% # Class of committed instruction
system.cpu.commit.op_class_0::SimdAlu             138      0.03%     71.34% # Class of committed instruction
system.cpu.commit.op_class_0::SimdCmp             140      0.03%     71.37% # Class of committed instruction
system.cpu.commit.op_class_0::SimdCvt               0      0.00%     71.37% # Class of committed instruction
system.cpu.commit.op_class_0::SimdMisc            103      0.02%     71.39% # Class of committed instruction
system.cpu.commit.op_class_0::SimdMult              0      0.00%     71.39% # Class of committed instruction
system.cpu.commit.op_class_0::SimdMultAcc            0      0.00%     71.39% # Class of committed instruction
system.cpu.commit.op_class_0::SimdShift             0      0.00%     71.39% # Class of committed instruction
system.cpu.commit.op_class_0::SimdShiftAcc            0      0.00%     71.39% # Class of committed instruction
system.cpu.commit.op_class_0::SimdDiv               0      0.00%     71.39% # Class of committed instruction
system.cpu.commit.op_class_0::SimdSqrt              0      0.00%     71.39% # Class of committed instruction
system.cpu.commit.op_class_0::SimdFloatAdd            0      0.00%     71.39% # Class of committed instruction
system.cpu.commit.op_class_0::SimdFloatAlu            0      0.00%     71.39% # Class of committed instruction
system.cpu.commit.op_class_0::SimdFloatCmp            0      0.00%     71.39% # Class of committed instruction
system.cpu.commit.op_class_0::SimdFloatCvt            0      0.00%     71.39% # Class of committed instruction
system.cpu.commit.op_class_0::SimdFloatDiv            0      0.00%     71.39% # Class of committed instruction
system.cpu.commit.op_class_0::SimdFloatMisc            0      0.00%     71.39% # Class of committed instruction
system.cpu.commit.op_class_0::SimdFloatMult            0      0.00%     71.39% # Class of committed instruction
system.cpu.commit.op_class_0::SimdFloatMultAcc            0      0.00%     71.39% # Class of committed instruction
system.cpu.commit.op_class_0::SimdFloatSqrt            0      0.00%     71.39% # Class of committed instruction
system.cpu.commit.op_class_0::SimdReduceAdd            0      0.00%     71.39% # Class of committed instruction
system.cpu.commit.op_class_0::SimdReduceAlu            0      0.00%     71.39% # Class of committed instruction
system.cpu.commit.op_class_0::SimdReduceCmp            0      0.00%     71.39% # Class of committed instruction
system.cpu.commit.op_class_0::SimdFloatReduceAdd            0      0.00%     71.39% # Class of committed instruction
system.cpu.commit.op_class_0::SimdFloatReduceCmp            0      0.00%     71.39% # Class of committed instruction
system.cpu.commit.op_class_0::SimdAes               0      0.00%     71.39% # Class of committed instruction
system.cpu.commit.op_class_0::SimdAesMix            0      0.00%     71.39% # Class of committed instruction
system.cpu.commit.op_class_0::SimdSha1Hash            0      0.00%     71.39% # Class of committed instruction
system.cpu.commit.op_class_0::SimdSha1Hash2            0      0.00%     71.39% # Class of committed instruction
system.cpu.commit.op_class_0::SimdSha256Hash            0      0.00%     71.39% # Class of committed instruction
system.cpu.commit.op_class_0::SimdSha256Hash2            0      0.00%     71.39% # Class of committed instruction
system.cpu.commit.op_class_0::SimdShaSigma2            0      0.00%     71.39% # Class of committed instruction
system.cpu.commit.op_class_0::SimdShaSigma3            0      0.00%     71.39% # Class of committed instruction
system.cpu.commit.op_class_0::SimdPredAlu            0      0.00%     71.39% # Class of committed instruction
system.cpu.commit.op_class_0::MemRead           80724     15.52%     86.91% # Class of committed instruction
system.cpu.commit.op_class_0::MemWrite          68057     13.09%    100.00% # Class of committed instruction
system.cpu.commit.op_class_0::FloatMemRead            0      0.00%    100.00% # Class of committed instruction
system.cpu.commit.op_class_0::FloatMemWrite            0      0.00%    100.00% # Class of committed instruction
system.cpu.commit.op_class_0::IprAccess             0      0.00%    100.00% # Class of committed instruction
system.cpu.commit.op_class_0::InstPrefetch            0      0.00%    100.00% # Class of committed instruction
system.cpu.commit.op_class_0::total            519996                       # Class of committed instruction
system.cpu.commit.refs                         148781                       # Number of memory references committed
system.cpu.commit.swp_count                         0                       # Number of s/w prefetches committed
system.cpu.commit.vec_insts                      1073                       # Number of committed Vector instructions.
system.cpu.committedInsts                      500000                       # Number of Instructions Simulated
system.cpu.committedOps                        519782                       # Number of Ops (including micro ops) Simulated
system.cpu.cpi                               1.587496                       # CPI: Cycles Per Instruction
system.cpu.cpi_total                         1.587496                       # CPI: Total CPI of All Threads
system.cpu.decode.BlockedCycles                538955                       # Number of cycles decode is blocked
system.cpu.decode.BranchMispred                   308                       # Number of times decode detected a branch misprediction
system.cpu.decode.BranchResolved                35802                       # Number of times decode resolved a branch
system.cpu.decode.DecodedInsts                 876922                       # Number of instructions handled by decode
system.cpu.decode.IdleCycles                    70467                       # Number of cycles decode is idle
system.cpu.decode.RunCycles                    106231                       # Number of cycles decode is running
system.cpu.decode.SquashCycles                   2823                       # Number of cycles decode is squashing
system.cpu.decode.SquashedInsts                  1036                       # Number of squashed instructions handled by decode
system.cpu.decode.UnblockCycles                 27244                       # Number of cycles decode is unblocking
system.cpu.dtb.accesses                             0                       # DTB accesses
system.cpu.dtb.align_faults                         0                       # Number of TLB faults due to alignment restrictions
system.cpu.dtb.domain_faults                        0                       # Number of TLB faults due to domain restrictions
system.cpu.dtb.flush_entries                        0                       # Number of entries that have been flushed from TLB
system.cpu.dtb.flush_tlb                            0                       # Number of times complete TLB was flushed
system.cpu.dtb.flush_tlb_asid                       0                       # Number of times TLB was flushed by ASID
system.cpu.dtb.flush_tlb_mva                        0                       # Number of times TLB was flushed by MVA
system.cpu.dtb.flush_tlb_mva_asid                   0                       # Number of times TLB was flushed by MVA & ASID
system.cpu.dtb.hits                                 0                       # DTB hits
system.cpu.dtb.inst_accesses                        0                       # ITB inst accesses
system.cpu.dtb.inst_hits                            0                       # ITB inst hits
system.cpu.dtb.inst_misses                          0                       # ITB inst misses
system.cpu.dtb.misses                               0                       # DTB misses
system.cpu.dtb.perms_faults                         0                       # Number of TLB faults due to permissions restrictions
system.cpu.dtb.prefetch_faults                      0                       # Number of TLB faults due to prefetch
system.cpu.dtb.read_accesses                        0                       # DTB read accesses
system.cpu.dtb.read_hits                            0                       # DTB read hits
system.cpu.dtb.read_misses                          0                       # DTB read misses
system.cpu.dtb.stage2_mmu.stage2_tlb.accesses            0                       # DTB accesses
system.cpu.dtb.stage2_mmu.stage2_tlb.align_faults            0                       # Number of TLB faults due to alignment restrictions
system.cpu.dtb.stage2_mmu.stage2_tlb.domain_faults            0                       # Number of TLB faults due to domain restrictions
system.cpu.dtb.stage2_mmu.stage2_tlb.flush_entries            0                       # Number of entries that have been flushed from TLB
system.cpu.dtb.stage2_mmu.stage2_tlb.flush_tlb            0                       # Number of times complete TLB was flushed
system.cpu.dtb.stage2_mmu.stage2_tlb.flush_tlb_asid            0                       # Number of times TLB was flushed by ASID
system.cpu.dtb.stage2_mmu.stage2_tlb.flush_tlb_mva            0                       # Number of times TLB was flushed by MVA
system.cpu.dtb.stage2_mmu.stage2_tlb.flush_tlb_mva_asid            0                       # Number of times TLB was flushed by MVA & ASID
system.cpu.dtb.stage2_mmu.stage2_tlb.hits            0                       # DTB hits
system.cpu.dtb.stage2_mmu.stage2_tlb.inst_accesses            0                       # ITB inst accesses
system.cpu.dtb.stage2_mmu.stage2_tlb.inst_hits            0                       # ITB inst hits
system.cpu.dtb.stage2_mmu.stage2_tlb.inst_misses            0                       # ITB inst misses
system.cpu.dtb.stage2_mmu.stage2_tlb.misses            0                       # DTB misses
system.cpu.dtb.stage2_mmu.stage2_tlb.perms_faults            0                       # Number of TLB faults due to permissions restrictions
system.cpu.dtb.stage2_mmu.stage2_tlb.prefetch_faults            0                       # Number of TLB faults due to prefetch
system.cpu.dtb.stage2_mmu.stage2_tlb.read_accesses            0                       # DTB read accesses
system.cpu.dtb.stage2_mmu.stage2_tlb.read_hits            0                       # DTB read hits
system.cpu.dtb.stage2_mmu.stage2_tlb.read_misses            0                       # DTB read misses
system.cpu.dtb.stage2_mmu.stage2_tlb.walker.walkRequestOrigin_Requested::Data            0                       # Table walker requests started/completed, data/inst
system.cpu.dtb.stage2_mmu.stage2_tlb.walker.walkRequestOrigin_Requested::Inst            0                       # Table walker requests started/completed, data/inst
system.cpu.dtb.stage2_mmu.stage2_tlb.walker.walkRequestOrigin_Requested::total            0                       # Table walker requests started/completed, data/inst
system.cpu.dtb.stage2_mmu.stage2_tlb.walker.walkRequestOrigin_Completed::Data            0                       # Table walker requests started/completed, data/inst
system.cpu.dtb.stage2_mmu.stage2_tlb.walker.walkRequestOrigin_Completed::Inst            0                       # Table walker requests started/completed, data/inst
system.cpu.dtb.stage2_mmu.stage2_tlb.walker.walkRequestOrigin_Completed::total            0                       # Table walker requests started/completed, data/inst
system.cpu.dtb.stage2_mmu.stage2_tlb.walker.walkRequestOrigin::total            0                       # Table walker requests started/completed, data/inst
system.cpu.dtb.stage2_mmu.stage2_tlb.walker.walks            0                       # Table walker walks requested
system.cpu.dtb.stage2_mmu.stage2_tlb.write_accesses            0                       # DTB write accesses
system.cpu.dtb.stage2_mmu.stage2_tlb.write_hits            0                       # DTB write hits
system.cpu.dtb.stage2_mmu.stage2_tlb.write_misses            0                       # DTB write misses
system.cpu.dtb.walker.walkRequestOrigin_Requested::Data            0                       # Table walker requests started/completed, data/inst
system.cpu.dtb.walker.walkRequestOrigin_Requested::Inst            0                       # Table walker requests started/completed, data/inst
system.cpu.dtb.walker.walkRequestOrigin_Requested::total            0                       # Table walker requests started/completed, data/inst
system.cpu.dtb.walker.walkRequestOrigin_Completed::Data            0                       # Table walker requests started/completed, data/inst
system.cpu.dtb.walker.walkRequestOrigin_Completed::Inst            0                       # Table walker requests started/completed, data/inst
system.cpu.dtb.walker.walkRequestOrigin_Completed::total            0                       # Table walker requests started/completed, data/inst
system.cpu.dtb.walker.walkRequestOrigin::total            0                       # Table walker requests started/completed, data/inst
system.cpu.dtb.walker.walks                         0                       # Table walker walks requested
system.cpu.dtb.write_accesses                       0                       # DTB write accesses
system.cpu.dtb.write_hits                           0                       # DTB write hits
system.cpu.dtb.write_misses                         0                       # DTB write misses
system.cpu.fetch.Branches                       77086                       # Number of branches that fetch encountered
system.cpu.fetch.CacheLines                    109678                       # Number of cache lines fetched
system.cpu.fetch.Cycles                        615328                       # Number of cycles fetch has run and was not squashing or blocked
system.cpu.fetch.IcacheSquashes                  1759                       # Number of outstanding Icache misses that were squashed
system.cpu.fetch.IcacheWaitRetryStallCycles           38                       # Number of stall cycles due to full MSHR
system.cpu.fetch.Insts                         886285                       # Number of instructions fetch has processed
system.cpu.fetch.MiscStallCycles                    3                       # Number of cycles fetch has spent waiting on interrupts, or bad addresses, or out of MSHRs
system.cpu.fetch.SquashCycles                    6258                       # Number of cycles fetch has spent squashing
system.cpu.fetch.branchRate                  0.097116                       # Number of branch fetches per cycle
system.cpu.fetch.icacheStallCycles             127222                       # Number of cycles fetch is stalled on an Icache miss
system.cpu.fetch.predictedBranches              61302                       # Number of branches that fetch has predicted taken
system.cpu.fetch.rate                        1.116582                       # Number of inst fetches per cycle
system.cpu.fetch.rateDist::samples             745720                       # Number of instructions fetched each cycle (Total)
system.cpu.fetch.rateDist::mean              1.233892                       # Number of instructions fetched each cycle (Total)
system.cpu.fetch.rateDist::stdev             2.576404                       # Number of instructions fetched each cycle (Total)
system.cpu.fetch.rateDist::underflows               0      0.00%      0.00% # Number of instructions fetched each cycle (Total)
system.cpu.fetch.rateDist::0                   574282     77.01%     77.01% # Number of instructions fetched each cycle (Total)
system.cpu.fetch.rateDist::1                    12840      1.72%     78.73% # Number of instructions fetched each cycle (Total)
system.cpu.fetch.rateDist::2                    28165      3.78%     82.51% # Number of instructions fetched each cycle (Total)
system.cpu.fetch.rateDist::3                     9916      1.33%     83.84% # Number of instructions fetched each cycle (Total)
system.cpu.fetch.rateDist::4                    13669      1.83%     85.67% # Number of instructions fetched each cycle (Total)
system.cpu.fetch.rateDist::5                    18208      2.44%     88.11% # Number of instructions fetched each cycle (Total)
system.cpu.fetch.rateDist::6                    13980      1.87%     89.99% # Number of instructions fetched each cycle (Total)
system.cpu.fetch.rateDist::7                     5656      0.76%     90.75% # Number of instructions fetched each cycle (Total)
system.cpu.fetch.rateDist::8                    69004      9.25%    100.00% # Number of instructions fetched each cycle (Total)
system.cpu.fetch.rateDist::overflows                0      0.00%    100.00% # Number of instructions fetched each cycle (Total)
system.cpu.fetch.rateDist::min_value                0                       # Number of instructions fetched each cycle (Total)
system.cpu.fetch.rateDist::max_value                8                       # Number of instructions fetched each cycle (Total)
system.cpu.fetch.rateDist::total               745720                       # Number of instructions fetched each cycle (Total)
system.cpu.idleCycles                           48028                       # Total number of cycles that the CPU has spent unscheduled due to idling
system.cpu.iew.branchMispredicts                 1024                       # Number of branch mispredicts detected at execute
system.cpu.iew.exec_branches                    68303                       # Number of branches executed
system.cpu.iew.exec_nop                           258                       # number of nop insts executed
system.cpu.iew.exec_rate                     0.957073                       # Inst execution rate
system.cpu.iew.exec_refs                       236531                       # number of memory reference insts executed
system.cpu.iew.exec_stores                      99628                       # Number of stores executed
system.cpu.iew.exec_swp                             0                       # number of swp insts executed
system.cpu.iew.iewBlockCycles                  157376                       # Number of cycles IEW is blocking
system.cpu.iew.iewDispLoadInsts                137767                       # Number of dispatched load instructions
system.cpu.iew.iewDispNonSpecInsts                223                       # Number of dispatched non-speculative instructions
system.cpu.iew.iewDispSquashedInsts               298                       # Number of squashed instructions skipped by dispatch
system.cpu.iew.iewDispStoreInsts               115039                       # Number of dispatched store instructions
system.cpu.iew.iewDispatchedInsts              851400                       # Number of instructions dispatched to IQ
system.cpu.iew.iewExecLoadInsts                136903                       # Number of load instructions executed
system.cpu.iew.iewExecSquashedInsts              2488                       # Number of squashed instructions skipped in execute
system.cpu.iew.iewExecutedInsts                759675                       # Number of executed instructions
system.cpu.iew.iewIQFullEvents                   7177                       # Number of times the IQ has become full, causing a stall
system.cpu.iew.iewIdleCycles                        0                       # Number of cycles IEW is idle
system.cpu.iew.iewLSQFullEvents                 17662                       # Number of times the LSQ has become full, causing a stall
system.cpu.iew.iewSquashCycles                   2823                       # Number of cycles IEW is squashing
system.cpu.iew.iewUnblockCycles                 29123                       # Number of cycles IEW is unblocking
system.cpu.iew.lsq.thread0.blockedLoads             0                       # Number of blocked loads due to partial load-store forwarding
system.cpu.iew.lsq.thread0.cacheBlocked          1544                       # Number of times an access to memory failed due to the cache being blocked
system.cpu.iew.lsq.thread0.forwLoads              120                       # Number of loads that had data forwarded from stores
system.cpu.iew.lsq.thread0.ignoredResponses           10                       # Number of memory responses ignored because the instruction is squashed
system.cpu.iew.lsq.thread0.invAddrLoads             0                       # Number of loads ignored due to an invalid address
system.cpu.iew.lsq.thread0.invAddrSwpfs             0                       # Number of software prefetches ignored due to an invalid address
system.cpu.iew.lsq.thread0.memOrderViolation           38                       # Number of memory ordering violations
system.cpu.iew.lsq.thread0.rescheduledLoads          176                       # Number of loads that were rescheduled
system.cpu.iew.lsq.thread0.squashedLoads        57030                       # Number of loads squashed
system.cpu.iew.lsq.thread0.squashedStores        46966                       # Number of stores squashed
system.cpu.iew.memOrderViolationEvents             38                       # Number of memory order violations
system.cpu.iew.predictedNotTakenIncorrect          740                       # Number of branches that were predicted not taken incorrectly
system.cpu.iew.predictedTakenIncorrect            284                       # Number of branches that were predicted taken incorrectly
system.cpu.iew.wb_consumers                    792695                       # num instructions consuming a value
system.cpu.iew.wb_count                        727198                       # cumulative count of insts written-back
system.cpu.iew.wb_fanout                     0.644188                       # average fanout of values written-back
system.cpu.iew.wb_producers                    510645                       # num instructions producing a value
system.cpu.iew.wb_rate                       0.916157                       # insts written-back per cycle
system.cpu.iew.wb_sent                         758504                       # cumulative count of insts sent to commit
system.cpu.int_regfile_reads                  1116290                       # number of integer regfile reads
system.cpu.int_regfile_writes                  626551                       # number of integer regfile writes
system.cpu.ipc                               0.629923                       # IPC: Instructions Per Cycle
system.cpu.ipc_total                         0.629923                       # IPC: Total IPC of All Threads
system.cpu.iq.FU_type_0::No_OpClass                42      0.01%      0.01% # Type of FU issued
system.cpu.iq.FU_type_0::IntAlu                394323     51.74%     51.74% # Type of FU issued
system.cpu.iq.FU_type_0::IntMult                96905     12.71%     64.46% # Type of FU issued
system.cpu.iq.FU_type_0::IntDiv                 33109      4.34%     68.80% # Type of FU issued
system.cpu.iq.FU_type_0::FloatAdd                   0      0.00%     68.80% # Type of FU issued
system.cpu.iq.FU_type_0::FloatCmp                   0      0.00%     68.80% # Type of FU issued
system.cpu.iq.FU_type_0::FloatCvt                   0      0.00%     68.80% # Type of FU issued
system.cpu.iq.FU_type_0::FloatMult                  0      0.00%     68.80% # Type of FU issued
system.cpu.iq.FU_type_0::FloatMultAcc               0      0.00%     68.80% # Type of FU issued
system.cpu.iq.FU_type_0::FloatDiv                   0      0.00%     68.80% # Type of FU issued
system.cpu.iq.FU_type_0::FloatMisc                  0      0.00%     68.80% # Type of FU issued
system.cpu.iq.FU_type_0::FloatSqrt                  0      0.00%     68.80% # Type of FU issued
system.cpu.iq.FU_type_0::SimdAdd                   99      0.01%     68.81% # Type of FU issued
system.cpu.iq.FU_type_0::SimdAddAcc                 0      0.00%     68.81% # Type of FU issued
system.cpu.iq.FU_type_0::SimdAlu                  170      0.02%     68.84% # Type of FU issued
system.cpu.iq.FU_type_0::SimdCmp                  164      0.02%     68.86% # Type of FU issued
system.cpu.iq.FU_type_0::SimdCvt                    0      0.00%     68.86% # Type of FU issued
system.cpu.iq.FU_type_0::SimdMisc                 111      0.01%     68.87% # Type of FU issued
system.cpu.iq.FU_type_0::SimdMult                   0      0.00%     68.87% # Type of FU issued
system.cpu.iq.FU_type_0::SimdMultAcc                0      0.00%     68.87% # Type of FU issued
system.cpu.iq.FU_type_0::SimdShift                  0      0.00%     68.87% # Type of FU issued
system.cpu.iq.FU_type_0::SimdShiftAcc               0      0.00%     68.87% # Type of FU issued
system.cpu.iq.FU_type_0::SimdDiv                    0      0.00%     68.87% # Type of FU issued
system.cpu.iq.FU_type_0::SimdSqrt                   0      0.00%     68.87% # Type of FU issued
system.cpu.iq.FU_type_0::SimdFloatAdd               0      0.00%     68.87% # Type of FU issued
system.cpu.iq.FU_type_0::SimdFloatAlu               0      0.00%     68.87% # Type of FU issued
system.cpu.iq.FU_type_0::SimdFloatCmp               0      0.00%     68.87% # Type of FU issued
system.cpu.iq.FU_type_0::SimdFloatCvt               0      0.00%     68.87% # Type of FU issued
system.cpu.iq.FU_type_0::SimdFloatDiv               0      0.00%     68.87% # Type of FU issued
system.cpu.iq.FU_type_0::SimdFloatMisc              0      0.00%     68.87% # Type of FU issued
system.cpu.iq.FU_type_0::SimdFloatMult              0      0.00%     68.87% # Type of FU issued
system.cpu.iq.FU_type_0::SimdFloatMultAcc            0      0.00%     68.87% # Type of FU issued
system.cpu.iq.FU_type_0::SimdFloatSqrt              0      0.00%     68.87% # Type of FU issued
system.cpu.iq.FU_type_0::SimdReduceAdd              0      0.00%     68.87% # Type of FU issued
system.cpu.iq.FU_type_0::SimdReduceAlu              0      0.00%     68.87% # Type of FU issued
system.cpu.iq.FU_type_0::SimdReduceCmp              0      0.00%     68.87% # Type of FU issued
system.cpu.iq.FU_type_0::SimdFloatReduceAdd            0      0.00%     68.87% # Type of FU issued
system.cpu.iq.FU_type_0::SimdFloatReduceCmp            0      0.00%     68.87% # Type of FU issued
system.cpu.iq.FU_type_0::SimdAes                    0      0.00%     68.87% # Type of FU issued
system.cpu.iq.FU_type_0::SimdAesMix                 0      0.00%     68.87% # Type of FU issued
system.cpu.iq.FU_type_0::SimdSha1Hash               0      0.00%     68.87% # Type of FU issued
system.cpu.iq.FU_type_0::SimdSha1Hash2              0      0.00%     68.87% # Type of FU issued
system.cpu.iq.FU_type_0::SimdSha256Hash             0      0.00%     68.87% # Type of FU issued
system.cpu.iq.FU_type_0::SimdSha256Hash2            0      0.00%     68.87% # Type of FU issued
system.cpu.iq.FU_type_0::SimdShaSigma2              0      0.00%     68.87% # Type of FU issued
system.cpu.iq.FU_type_0::SimdShaSigma3              0      0.00%     68.87% # Type of FU issued
system.cpu.iq.FU_type_0::SimdPredAlu                0      0.00%     68.87% # Type of FU issued
system.cpu.iq.FU_type_0::MemRead               137393     18.03%     86.90% # Type of FU issued
system.cpu.iq.FU_type_0::MemWrite               99849     13.10%    100.00% # Type of FU issued
system.cpu.iq.FU_type_0::FloatMemRead               0      0.00%    100.00% # Type of FU issued
system.cpu.iq.FU_type_0::FloatMemWrite              0      0.00%    100.00% # Type of FU issued
system.cpu.iq.FU_type_0::IprAccess                  0      0.00%    100.00% # Type of FU issued
system.cpu.iq.FU_type_0::InstPrefetch               0      0.00%    100.00% # Type of FU issued
system.cpu.iq.FU_type_0::total                 762165                       # Type of FU issued
system.cpu.iq.fp_alu_accesses                       0                       # Number of floating point alu accesses
system.cpu.iq.fp_inst_queue_reads                   0                       # Number of floating instruction queue reads
system.cpu.iq.fp_inst_queue_wakeup_accesses            0                       # Number of floating instruction queue wakeup accesses
system.cpu.iq.fp_inst_queue_writes                  0                       # Number of floating instruction queue writes
system.cpu.iq.fu_busy_cnt                      571362                       # FU busy when requested
system.cpu.iq.fu_busy_rate                   0.749657                       # FU busy rate (busy events/executed inst)
system.cpu.iq.fu_full::No_OpClass                   0      0.00%      0.00% # attempts to use FU when none available
system.cpu.iq.fu_full::IntAlu                    3307      0.58%      0.58% # attempts to use FU when none available
system.cpu.iq.fu_full::IntMult                 295931     51.79%     52.37% # attempts to use FU when none available
system.cpu.iq.fu_full::IntDiv                  261885     45.84%     98.21% # attempts to use FU when none available
system.cpu.iq.fu_full::FloatAdd                     0      0.00%     98.21% # attempts to use FU when none available
system.cpu.iq.fu_full::FloatCmp                     0      0.00%     98.21% # attempts to use FU when none available
system.cpu.iq.fu_full::FloatCvt                     0      0.00%     98.21% # attempts to use FU when none available
system.cpu.iq.fu_full::FloatMult                    0      0.00%     98.21% # attempts to use FU when none available
system.cpu.iq.fu_full::FloatMultAcc                 0      0.00%     98.21% # attempts to use FU when none available
system.cpu.iq.fu_full::FloatDiv                     0      0.00%     98.21% # attempts to use FU when none available
system.cpu.iq.fu_full::FloatMisc                    0      0.00%     98.21% # attempts to use FU when none available
system.cpu.iq.fu_full::FloatSqrt                    0      0.00%     98.21% # attempts to use FU when none available
system.cpu.iq.fu_full::SimdAdd                      0      0.00%     98.21% # attempts to use FU when none available
system.cpu.iq.fu_full::SimdAddAcc                   0      0.00%     98.21% # attempts to use FU when none available
system.cpu.iq.fu_full::SimdAlu                      1      0.00%     98.21% # attempts to use FU when none available
system.cpu.iq.fu_full::SimdCmp                      8      0.00%     98.21% # attempts to use FU when none available
system.cpu.iq.fu_full::SimdCvt                      0      0.00%     98.21% # attempts to use FU when none available
system.cpu.iq.fu_full::SimdMisc                     0      0.00%     98.21% # attempts to use FU when none available
system.cpu.iq.fu_full::SimdMult                     0      0.00%     98.21% # attempts to use FU when none available
system.cpu.iq.fu_full::SimdMultAcc                  0      0.00%     98.21% # attempts to use FU when none available
system.cpu.iq.fu_full::SimdShift                    0      0.00%     98.21% # attempts to use FU when none available
system.cpu.iq.fu_full::SimdShiftAcc                 0      0.00%     98.21% # attempts to use FU when none available
system.cpu.iq.fu_full::SimdDiv                      0      0.00%     98.21% # attempts to use FU when none available
system.cpu.iq.fu_full::SimdSqrt                     0      0.00%     98.21% # attempts to use FU when none available
system.cpu.iq.fu_full::SimdFloatAdd                 0      0.00%     98.21% # attempts to use FU when none available
system.cpu.iq.fu_full::SimdFloatAlu                 0      0.00%     98.21% # attempts to use FU when none available
system.cpu.iq.fu_full::SimdFloatCmp                 0      0.00%     98.21% # attempts to use FU when none available
system.cpu.iq.fu_full::SimdFloatCvt                 0      0.00%     98.21% # attempts to use FU when none available
system.cpu.iq.fu_full::SimdFloatDiv                 0      0.00%     98.21% # attempts to use FU when none available
system.cpu.iq.fu_full::SimdFloatMisc                0      0.00%     98.21% # attempts to use FU when none available
system.cpu.iq.fu_full::SimdFloatMult                0      0.00%     98.21% # attempts to use FU when none available
system.cpu.iq.fu_full::SimdFloatMultAcc             0      0.00%     98.21% # attempts to use FU when none available
system.cpu.iq.fu_full::SimdFloatSqrt                0      0.00%     98.21% # attempts to use FU when none available
system.cpu.iq.fu_full::SimdReduceAdd                0      0.00%     98.21% # attempts to use FU when none available
system.cpu.iq.fu_full::SimdReduceAlu                0      0.00%     98.21% # attempts to use FU when none available
system.cpu.iq.fu_full::SimdReduceCmp                0      0.00%     98.21% # attempts to use FU when none available
system.cpu.iq.fu_full::SimdFloatReduceAdd            0      0.00%     98.21% # attempts to use FU when none available
system.cpu.iq.fu_full::SimdFloatReduceCmp            0      0.00%     98.21% # attempts to use FU when none available
system.cpu.iq.fu_full::SimdAes                      0      0.00%     98.21% # attempts to use FU when none available
system.cpu.iq.fu_full::SimdAesMix                   0      0.00%     98.21% # attempts to use FU when none available
system.cpu.iq.fu_full::SimdSha1Hash                 0      0.00%     98.21% # attempts to use FU when none available
system.cpu.iq.fu_full::SimdSha1Hash2                0      0.00%     98.21% # attempts to use FU when none available
system.cpu.iq.fu_full::SimdSha256Hash               0      0.00%     98.21% # attempts to use FU when none available
system.cpu.iq.fu_full::SimdSha256Hash2              0      0.00%     98.21% # attempts to use FU when none available
system.cpu.iq.fu_full::SimdShaSigma2                0      0.00%     98.21% # attempts to use FU when none available
system.cpu.iq.fu_full::SimdShaSigma3                0      0.00%     98.21% # attempts to use FU when none available
system.cpu.iq.fu_full::SimdPredAlu                  0      0.00%     98.21% # attempts to use FU when none available
system.cpu.iq.fu_full::MemRead                   5532      0.97%     99.18% # attempts to use FU when none available
system.cpu.iq.fu_full::MemWrite                  4698      0.82%    100.00% # attempts to use FU when none available
system.cpu.iq.fu_full::FloatMemRead                 0      0.00%    100.00% # attempts to use FU when none available
system.cpu.iq.fu_full::FloatMemWrite                0      0.00%    100.00% # attempts to use FU when none available
system.cpu.iq.fu_full::IprAccess                    0      0.00%    100.00% # attempts to use FU when none available
system.cpu.iq.fu_full::InstPrefetch                 0      0.00%    100.00% # attempts to use FU when none available
system.cpu.iq.int_alu_accesses                1332163                       # Number of integer alu accesses
system.cpu.iq.int_inst_queue_reads            2851638                       # Number of integer instruction queue reads
system.cpu.iq.int_inst_queue_wakeup_accesses       725996                       # Number of integer instruction queue wakeup accesses
system.cpu.iq.int_inst_queue_writes           1180856                       # Number of integer instruction queue writes
system.cpu.iq.iqInstsAdded                     850919                       # Number of instructions added to the IQ (excludes non-spec)
system.cpu.iq.iqInstsIssued                    762165                       # Number of instructions issued
system.cpu.iq.iqNonSpecInstsAdded                 223                       # Number of non-speculative instructions added to the IQ
system.cpu.iq.iqSquashedInstsExamined          331262                       # Number of squashed instructions iterated over during squash; mainly for profiling
system.cpu.iq.iqSquashedInstsIssued             12830                       # Number of squashed instructions issued
system.cpu.iq.iqSquashedNonSpecRemoved             54                       # Number of squashed non-spec instructions that were removed
system.cpu.iq.iqSquashedOperandsExamined       254255                       # Number of squashed operands that are examined and possibly removed from graph
system.cpu.iq.issued_per_cycle::samples        745720                       # Number of insts issued each cycle
system.cpu.iq.issued_per_cycle::mean         1.022053                       # Number of insts issued each cycle
system.cpu.iq.issued_per_cycle::stdev        1.600334                       # Number of insts issued each cycle
system.cpu.iq.issued_per_cycle::underflows            0      0.00%      0.00% # Number of insts issued each cycle
system.cpu.iq.issued_per_cycle::0              443282     59.44%     59.44% # Number of insts issued each cycle
system.cpu.iq.issued_per_cycle::1               96136     12.89%     72.34% # Number of insts issued each cycle
system.cpu.iq.issued_per_cycle::2               91151     12.22%     84.56% # Number of insts issued each cycle
system.cpu.iq.issued_per_cycle::3               49288      6.61%     91.17% # Number of insts issued each cycle
system.cpu.iq.issued_per_cycle::4               22517      3.02%     94.19% # Number of insts issued each cycle
system.cpu.iq.issued_per_cycle::5               23723      3.18%     97.37% # Number of insts issued each cycle
system.cpu.iq.issued_per_cycle::6               11160      1.50%     98.87% # Number of insts issued each cycle
system.cpu.iq.issued_per_cycle::7                7484      1.00%     99.87% # Number of insts issued each cycle
system.cpu.iq.issued_per_cycle::8                 979      0.13%    100.00% # Number of insts issued each cycle
system.cpu.iq.issued_per_cycle::overflows            0      0.00%    100.00% # Number of insts issued each cycle
system.cpu.iq.issued_per_cycle::min_value            0                       # Number of insts issued each cycle
system.cpu.iq.issued_per_cycle::max_value            8                       # Number of insts issued each cycle
system.cpu.iq.issued_per_cycle::total          745720                       # Number of insts issued each cycle
system.cpu.iq.rate                           0.960210                       # Inst issue rate
system.cpu.iq.vec_alu_accesses                   1322                       # Number of vector alu accesses
system.cpu.iq.vec_inst_queue_reads               2602                       # Number of vector instruction queue reads
system.cpu.iq.vec_inst_queue_wakeup_accesses         1202                       # Number of vector instruction queue wakeup accesses
system.cpu.iq.vec_inst_queue_writes              1583                       # Number of vector instruction queue writes
system.cpu.itb.accesses                             0                       # DTB accesses
system.cpu.itb.align_faults                         0                       # Number of TLB faults due to alignment restrictions
system.cpu.itb.domain_faults                        0                       # Number of TLB faults due to domain restrictions
system.cpu.itb.flush_entries                        0                       # Number of entries that have been flushed from TLB
system.cpu.itb.flush_tlb                            0                       # Number of times complete TLB was flushed
system.cpu.itb.flush_tlb_asid                       0                       # Number of times TLB was flushed by ASID
system.cpu.itb.flush_tlb_mva                        0                       # Number of times TLB was flushed by MVA
system.cpu.itb.flush_tlb_mva_asid                   0                       # Number of times TLB was flushed by MVA & ASID
system.cpu.itb.hits                                 0                       # DTB hits
system.cpu.itb.inst_accesses                        0                       # ITB inst accesses
system.cpu.itb.inst_hits                            0                       # ITB inst hits
system.cpu.itb.inst_misses                          0                       # ITB inst misses
system.cpu.itb.misses                               0                       # DTB misses
system.cpu.itb.perms_faults                         0                       # Number of TLB faults due to permissions restrictions
system.cpu.itb.prefetch_faults                      0                       # Number of TLB faults due to prefetch
system.cpu.itb.read_accesses                        0                       # DTB read accesses
system.cpu.itb.read_hits                            0                       # DTB read hits
system.cpu.itb.read_misses                          0                       # DTB read misses
system.cpu.itb.stage2_mmu.stage2_tlb.accesses            0                       # DTB accesses
system.cpu.itb.stage2_mmu.stage2_tlb.align_faults            0                       # Number of TLB faults due to alignment restrictions
system.cpu.itb.stage2_mmu.stage2_tlb.domain_faults            0                       # Number of TLB faults due to domain restrictions
system.cpu.itb.stage2_mmu.stage2_tlb.flush_entries            0                       # Number of entries that have been flushed from TLB
system.cpu.itb.stage2_mmu.stage2_tlb.flush_tlb            0                       # Number of times complete TLB was flushed
system.cpu.itb.stage2_mmu.stage2_tlb.flush_tlb_asid            0                       # Number of times TLB was flushed by ASID
system.cpu.itb.stage2_mmu.stage2_tlb.flush_tlb_mva            0                       # Number of times TLB was flushed by MVA
system.cpu.itb.stage2_mmu.stage2_tlb.flush_tlb_mva_asid            0                       # Number of times TLB was flushed by MVA & ASID
system.cpu.itb.stage2_mmu.stage2_tlb.hits            0                       # DTB hits
system.cpu.itb.stage2_mmu.stage2_tlb.inst_accesses            0                       # ITB inst accesses
system.cpu.itb.stage2_mmu.stage2_tlb.inst_hits            0                       # ITB inst hits
system.cpu.itb.stage2_mmu.stage2_tlb.inst_misses            0                       # ITB inst misses
system.cpu.itb.stage2_mmu.stage2_tlb.misses            0                       # DTB misses
system.cpu.itb.stage2_mmu.stage2_tlb.perms_faults            0                       # Number of TLB faults due to permissions restrictions
system.cpu.itb.stage2_mmu.stage2_tlb.prefetch_faults            0                       # Number of TLB faults due to prefetch
system.cpu.itb.stage2_mmu.stage2_tlb.read_accesses            0                       # DTB read accesses
system.cpu.itb.stage2_mmu.stage2_tlb.read_hits            0                       # DTB read hits
system.cpu.itb.stage2_mmu.stage2_tlb.read_misses            0                       # DTB read misses
system.cpu.itb.stage2_mmu.stage2_tlb.walker.walkRequestOrigin_Requested::Data            0                       # Table walker requests started/completed, data/inst
system.cpu.itb.stage2_mmu.stage2_tlb.walker.walkRequestOrigin_Requested::Inst            0                       # Table walker requests started/completed, data/inst
system.cpu.itb.stage2_mmu.stage2_tlb.walker.walkRequestOrigin_Requested::total            0                       # Table walker requests started/completed, data/inst
system.cpu.itb.stage2_mmu.stage2_tlb.walker.walkRequestOrigin_Completed::Data            0                       # Table walker requests started/completed, data/inst
system.cpu.itb.stage2_mmu.stage2_tlb.walker.walkRequestOrigin_Completed::Inst            0                       # Table walker requests started/completed, data/inst
system.cpu.itb.stage2_mmu.stage2_tlb.walker.walkRequestOrigin_Completed::total            0                       # Table walker requests started/completed, data/inst
system.cpu.itb.stage2_mmu.stage2_tlb.walker.walkRequestOrigin::total            0                       # Table walker requests started/completed, data/inst
system.cpu.itb.stage2_mmu.stage2_tlb.walker.walks            0                       # Table walker walks requested
system.cpu.itb.stage2_mmu.stage2_tlb.write_accesses            0                       # DTB write accesses
system.cpu.itb.stage2_mmu.stage2_tlb.write_hits            0                       # DTB write hits
system.cpu.itb.stage2_mmu.stage2_tlb.write_misses            0                       # DTB write misses
system.cpu.itb.walker.walkRequestOrigin_Requested::Data            0                       # Table walker requests started/completed, data/inst
system.cpu.itb.walker.walkRequestOrigin_Requested::Inst            0                       # Table walker requests started/completed, data/inst
system.cpu.itb.walker.walkRequestOrigin_Requested::total            0                       # Table walker requests started/completed, data/inst
system.cpu.itb.walker.walkRequestOrigin_Completed::Data            0                       # Table walker requests started/completed, data/inst
system.cpu.itb.walker.walkRequestOrigin_Completed::Inst            0                       # Table walker requests started/completed, data/inst
system.cpu.itb.walker.walkRequestOrigin_Completed::total            0                       # Table walker requests started/completed, data/inst
system.cpu.itb.walker.walkRequestOrigin::total            0                       # Table walker requests started/completed, data/inst
system.cpu.itb.walker.walks                         0                       # Table walker walks requested
system.cpu.itb.write_accesses                       0                       # DTB write accesses
system.cpu.itb.write_hits                           0                       # DTB write hits
system.cpu.itb.write_misses                         0                       # DTB write misses
system.cpu.memDep0.conflictingLoads              2347                       # Number of conflicting loads.
system.cpu.memDep0.conflictingStores              337                       # Number of conflicting stores.
system.cpu.memDep0.insertedLoads               137767                       # Number of loads inserted to the mem dependence unit.
system.cpu.memDep0.insertedStores              115039                       # Number of stores inserted to the mem dependence unit.
system.cpu.misc_regfile_reads                  466413                       # number of misc regfile reads
system.cpu.misc_regfile_writes                    569                       # number of misc regfile writes
system.cpu.numCycles                           793748                       # number of cpu cycles simulated
system.cpu.numWorkItemsCompleted                    0                       # number of work items this cpu completed
system.cpu.numWorkItemsStarted                      0                       # number of work items this cpu started
system.cpu.rename.BlockCycles                  217564                       # Number of cycles rename is blocking
system.cpu.rename.CommittedMaps                460424                       # Number of HB maps that are committed
system.cpu.rename.IQFullEvents                  54795                       # Number of times rename has blocked due to IQ full
system.cpu.rename.IdleCycles                    77139                       # Number of cycles rename is idle
system.cpu.rename.ROBFullEvents                    13                       # Number of times rename has blocked due to ROB full
system.cpu.rename.RenameLookups               1367674                       # Number of register rename lookups that rename has made
system.cpu.rename.RenamedInsts                 861847                       # Number of instructions processed by rename
system.cpu.rename.RenamedOperands              755163                       # Number of destination operands rename has renamed
system.cpu.rename.RunCycles                    121014                       # Number of cycles rename is running
system.cpu.rename.SQFullEvents                 256145                       # Number of times rename has blocked due to SQ full
system.cpu.rename.SquashCycles                   2823                       # Number of cycles rename is squashing
system.cpu.rename.UnblockCycles                314571                       # Number of cycles rename is unblocking
system.cpu.rename.UndoneMaps                   294653                       # Number of HB maps that are undone due to squashing
system.cpu.rename.int_rename_lookups          1315678                       # Number of integer rename lookups
system.cpu.rename.serializeStallCycles          12609                       # count of cycles rename stalled for serializing inst
system.cpu.rename.serializingInsts                395                       # count of serializing insts renamed
system.cpu.rename.skidInsts                    131722                       # count of insts added to the skid buffer
system.cpu.rename.tempSerializingInsts            239                       # count of temporary serializing insts renamed
system.cpu.rename.vec_rename_lookups             1686                       # Number of vector rename lookups
system.cpu.rob.rob_reads                      1430599                       # The number of ROB reads
system.cpu.rob.rob_writes                     1583158                       # The number of ROB writes
system.cpu.timesIdled                             510                       # Number of times that the entire CPU went into an idle state and unscheduled itself
system.cpu.vec_regfile_reads                     1489                       # number of vector regfile reads
system.cpu.vec_regfile_writes                     667                       # number of vector regfile writes
system.cpu.workload.numSyscalls                    26                       # Number of system calls
system.membus.snoop_filter.hit_multi_requests            0                       # Number of requests hitting in the snoop filter with multiple (>1) holders of the requested data.
system.membus.snoop_filter.hit_multi_snoops            0                       # Number of snoops hitting in the snoop filter with multiple (>1) holders of the requested data.
system.membus.snoop_filter.hit_single_requests         5312                       # Number of requests hitting in the snoop filter with a single holder of the requested data.
system.membus.snoop_filter.hit_single_snoops            0                       # Number of snoops hitting in the snoop filter with a single holder of the requested data.
system.membus.snoop_filter.tot_requests         13525                       # Total number of requests made to the snoop filter.
system.membus.snoop_filter.tot_snoops               0                       # Total number of snoops made to the snoop filter.
system.tol2bus.snoop_filter.hit_multi_requests            1                       # Number of requests hitting in the snoop filter with multiple (>1) holders of the requested data.
system.tol2bus.snoop_filter.hit_multi_snoops            0                       # Number of snoops hitting in the snoop filter with multiple (>1) holders of the requested data.
system.tol2bus.snoop_filter.hit_single_requests         7771                       # Number of requests hitting in the snoop filter with a single holder of the requested data.
system.tol2bus.snoop_filter.hit_single_snoops           25                       # Number of snoops hitting in the snoop filter with a single holder of the requested data.
system.tol2bus.snoop_filter.tot_requests        16212                       # Total number of requests made to the snoop filter.
system.tol2bus.snoop_filter.tot_snoops             25                       # Total number of snoops made to the snoop filter.
system.membus.trans_dist::ReadResp                753                       # Transaction distribution
system.membus.trans_dist::WritebackDirty         5291                       # Transaction distribution
system.membus.trans_dist::CleanEvict               21                       # Transaction distribution
system.membus.trans_dist::ReadExReq              7453                       # Transaction distribution
system.membus.trans_dist::ReadExResp             7451                       # Transaction distribution
system.membus.trans_dist::ReadSharedReq           753                       # Transaction distribution
system.membus.trans_dist::InvalidateReq             7                       # Transaction distribution
system.membus.pkt_count_system.l2.mem_side::system.mem_ctrls.port        21729                       # Packet count per connected master and slave (bytes)
system.membus.pkt_count::total                  21729                       # Packet count per connected master and slave (bytes)
system.membus.pkt_size_system.l2.mem_side::system.mem_ctrls.port       863680                       # Cumulative packet size per connected master and slave (bytes)
system.membus.pkt_size::total                  863680                       # Cumulative packet size per connected master and slave (bytes)
system.membus.snoops                                0                       # Total snoops (count)
system.membus.snoopTraffic                          0                       # Total snoop traffic (bytes)
system.membus.snoop_fanout::samples              8213                       # Request fanout histogram
system.membus.snoop_fanout::mean                    0                       # Request fanout histogram
system.membus.snoop_fanout::stdev                   0                       # Request fanout histogram
system.membus.snoop_fanout::underflows              0      0.00%      0.00% # Request fanout histogram
system.membus.snoop_fanout::0                    8213    100.00%    100.00% # Request fanout histogram
system.membus.snoop_fanout::1                       0      0.00%    100.00% # Request fanout histogram
system.membus.snoop_fanout::overflows               0      0.00%    100.00% # Request fanout histogram
system.membus.snoop_fanout::min_value               0                       # Request fanout histogram
system.membus.snoop_fanout::max_value               0                       # Request fanout histogram
system.membus.snoop_fanout::total                8213                       # Request fanout histogram
system.membus.reqLayer0.occupancy            36536000                       # Layer occupancy (ticks)
system.membus.reqLayer0.utilization               9.2                       # Layer utilization (%)
system.membus.respLayer1.occupancy           43080750                       # Layer occupancy (ticks)
system.membus.respLayer1.utilization             10.9                       # Layer utilization (%)
system.membus.power_state.pwrStateResidencyTicks::UNDEFINED    396873500                       # Cumulative time (in ticks) in various power states
system.tol2bus.trans_dist::ReadResp               980                       # Transaction distribution
system.tol2bus.trans_dist::WritebackDirty        12610                       # Transaction distribution
system.tol2bus.trans_dist::WritebackClean          439                       # Transaction distribution
system.tol2bus.trans_dist::CleanEvict              59                       # Transaction distribution
system.tol2bus.trans_dist::ReadExReq             7454                       # Transaction distribution
system.tol2bus.trans_dist::ReadExResp            7452                       # Transaction distribution
system.tol2bus.trans_dist::ReadCleanReq           837                       # Transaction distribution
system.tol2bus.trans_dist::ReadSharedReq          143                       # Transaction distribution
system.tol2bus.trans_dist::InvalidateReq            7                       # Transaction distribution
system.tol2bus.trans_dist::InvalidateResp            7                       # Transaction distribution
system.tol2bus.pkt_count_system.cpu.icache.mem_side::system.l2.cpu_side         2113                       # Packet count per connected master and slave (bytes)
system.tol2bus.pkt_count_system.cpu.dcache.mem_side::system.l2.cpu_side        22538                       # Packet count per connected master and slave (bytes)
system.tol2bus.pkt_count::total                 24651                       # Packet count per connected master and slave (bytes)
system.tol2bus.pkt_size_system.cpu.icache.mem_side::system.l2.cpu_side        81664                       # Cumulative packet size per connected master and slave (bytes)
system.tol2bus.pkt_size_system.cpu.dcache.mem_side::system.l2.cpu_side       954496                       # Cumulative packet size per connected master and slave (bytes)
system.tol2bus.pkt_size::total                1036160                       # Cumulative packet size per connected master and slave (bytes)
system.tol2bus.snoops                            5337                       # Total snoops (count)
system.tol2bus.snoopTraffic                    338624                       # Total snoop traffic (bytes)
system.tol2bus.snoop_fanout::samples            13778                       # Request fanout histogram
system.tol2bus.snoop_fanout::mean            0.001887                       # Request fanout histogram
system.tol2bus.snoop_fanout::stdev           0.043401                       # Request fanout histogram
system.tol2bus.snoop_fanout::underflows             0      0.00%      0.00% # Request fanout histogram
system.tol2bus.snoop_fanout::0                  13752     99.81%     99.81% # Request fanout histogram
system.tol2bus.snoop_fanout::1                     26      0.19%    100.00% # Request fanout histogram
system.tol2bus.snoop_fanout::2                      0      0.00%    100.00% # Request fanout histogram
system.tol2bus.snoop_fanout::overflows              0      0.00%    100.00% # Request fanout histogram
system.tol2bus.snoop_fanout::min_value              0                       # Request fanout histogram
system.tol2bus.snoop_fanout::max_value              1                       # Request fanout histogram
system.tol2bus.snoop_fanout::total              13778                       # Request fanout histogram
system.tol2bus.reqLayer0.occupancy           15864000                       # Layer occupancy (ticks)
system.tol2bus.reqLayer0.utilization              4.0                       # Layer utilization (%)
system.tol2bus.respLayer1.occupancy          11396000                       # Layer occupancy (ticks)
system.tol2bus.respLayer1.utilization             2.9                       # Layer utilization (%)
system.tol2bus.respLayer0.occupancy           1255500                       # Layer occupancy (ticks)
system.tol2bus.respLayer0.utilization             0.3                       # Layer utilization (%)
system.tol2bus.power_state.pwrStateResidencyTicks::UNDEFINED    396873500                       # Cumulative time (in ticks) in various power states
system.voltage_domain.voltage                       1                       # Voltage in Volts
system.clk_domain.clock                          1000                       # Clock period in ticks
system.l2.demand_hits::.cpu.inst                  224                       # number of demand (read+write) hits
system.l2.demand_hits::.cpu.data                    4                       # number of demand (read+write) hits
system.l2.demand_hits::total                      228                       # number of demand (read+write) hits
system.l2.overall_hits::.cpu.inst                 224                       # number of overall hits
system.l2.overall_hits::.cpu.data                   4                       # number of overall hits
system.l2.overall_hits::total                     228                       # number of overall hits
system.l2.demand_misses::.cpu.inst                613                       # number of demand (read+write) misses
system.l2.demand_misses::.cpu.data               7593                       # number of demand (read+write) misses
system.l2.demand_misses::total                   8206                       # number of demand (read+write) misses
system.l2.overall_misses::.cpu.inst               613                       # number of overall misses
system.l2.overall_misses::.cpu.data              7593                       # number of overall misses
system.l2.overall_misses::total                  8206                       # number of overall misses
system.l2.demand_miss_latency::.cpu.inst     48001000                       # number of demand (read+write) miss cycles
system.l2.demand_miss_latency::.cpu.data    651431500                       # number of demand (read+write) miss cycles
system.l2.demand_miss_latency::total        699432500                       # number of demand (read+write) miss cycles
system.l2.overall_miss_latency::.cpu.inst     48001000                       # number of overall miss cycles
system.l2.overall_miss_latency::.cpu.data    651431500                       # number of overall miss cycles
system.l2.overall_miss_latency::total       699432500                       # number of overall miss cycles
system.l2.demand_accesses::.cpu.inst              837                       # number of demand (read+write) accesses
system.l2.demand_accesses::.cpu.data             7597                       # number of demand (read+write) accesses
system.l2.demand_accesses::total                 8434                       # number of demand (read+write) accesses
system.l2.overall_accesses::.cpu.inst             837                       # number of overall (read+write) accesses
system.l2.overall_accesses::.cpu.data            7597                       # number of overall (read+write) accesses
system.l2.overall_accesses::total                8434                       # number of overall (read+write) accesses
system.l2.demand_miss_rate::.cpu.inst        0.732378                       # miss rate for demand accesses
system.l2.demand_miss_rate::.cpu.data        0.999473                       # miss rate for demand accesses
system.l2.demand_miss_rate::total            0.972967                       # miss rate for demand accesses
system.l2.overall_miss_rate::.cpu.inst       0.732378                       # miss rate for overall accesses
system.l2.overall_miss_rate::.cpu.data       0.999473                       # miss rate for overall accesses
system.l2.overall_miss_rate::total           0.972967                       # miss rate for overall accesses
system.l2.demand_avg_miss_latency::.cpu.inst 78305.057096                       # average overall miss latency
system.l2.demand_avg_miss_latency::.cpu.data 85793.691558                       # average overall miss latency
system.l2.demand_avg_miss_latency::total 85234.279795                       # average overall miss latency
system.l2.overall_avg_miss_latency::.cpu.inst 78305.057096                       # average overall miss latency
system.l2.overall_avg_miss_latency::.cpu.data 85793.691558                       # average overall miss latency
system.l2.overall_avg_miss_latency::total 85234.279795                       # average overall miss latency
system.l2.blocked_cycles::no_mshrs                  0                       # number of cycles access was blocked
system.l2.blocked_cycles::no_targets                0                       # number of cycles access was blocked
system.l2.blocked::no_mshrs                         0                       # number of cycles access was blocked
system.l2.blocked::no_targets                       0                       # number of cycles access was blocked
system.l2.avg_blocked_cycles::no_mshrs            nan                       # average number of cycles each access was blocked
system.l2.avg_blocked_cycles::no_targets          nan                       # average number of cycles each access was blocked
system.l2.writebacks::.writebacks                5291                       # number of writebacks
system.l2.writebacks::total                      5291                       # number of writebacks
system.l2.demand_mshr_misses::.cpu.inst           613                       # number of demand (read+write) MSHR misses
system.l2.demand_mshr_misses::.cpu.data          7593                       # number of demand (read+write) MSHR misses
system.l2.demand_mshr_misses::total              8206                       # number of demand (read+write) MSHR misses
system.l2.overall_mshr_misses::.cpu.inst          613                       # number of overall MSHR misses
system.l2.overall_mshr_misses::.cpu.data         7593                       # number of overall MSHR misses
system.l2.overall_mshr_misses::total             8206                       # number of overall MSHR misses
system.l2.demand_mshr_miss_latency::.cpu.inst     41871000                       # number of demand (read+write) MSHR miss cycles
system.l2.demand_mshr_miss_latency::.cpu.data    575521500                       # number of demand (read+write) MSHR miss cycles
system.l2.demand_mshr_miss_latency::total    617392500                       # number of demand (read+write) MSHR miss cycles
system.l2.overall_mshr_miss_latency::.cpu.inst     41871000                       # number of overall MSHR miss cycles
system.l2.overall_mshr_miss_latency::.cpu.data    575521500                       # number of overall MSHR miss cycles
system.l2.overall_mshr_miss_latency::total    617392500                       # number of overall MSHR miss cycles
system.l2.demand_mshr_miss_rate::.cpu.inst     0.732378                       # mshr miss rate for demand accesses
system.l2.demand_mshr_miss_rate::.cpu.data     0.999473                       # mshr miss rate for demand accesses
system.l2.demand_mshr_miss_rate::total       0.972967                       # mshr miss rate for demand accesses
system.l2.overall_mshr_miss_rate::.cpu.inst     0.732378                       # mshr miss rate for overall accesses
system.l2.overall_mshr_miss_rate::.cpu.data     0.999473                       # mshr miss rate for overall accesses
system.l2.overall_mshr_miss_rate::total      0.972967                       # mshr miss rate for overall accesses
system.l2.demand_avg_mshr_miss_latency::.cpu.inst 68305.057096                       # average overall mshr miss latency
system.l2.demand_avg_mshr_miss_latency::.cpu.data 75796.325563                       # average overall mshr miss latency
system.l2.demand_avg_mshr_miss_latency::total 75236.717036                       # average overall mshr miss latency
system.l2.overall_avg_mshr_miss_latency::.cpu.inst 68305.057096                       # average overall mshr miss latency
system.l2.overall_avg_mshr_miss_latency::.cpu.data 75796.325563                       # average overall mshr miss latency
system.l2.overall_avg_mshr_miss_latency::total 75236.717036                       # average overall mshr miss latency
system.l2.replacements                           5337                       # number of replacements
system.l2.WritebackDirty_hits::.writebacks         7319                       # number of WritebackDirty hits
system.l2.WritebackDirty_hits::total             7319                       # number of WritebackDirty hits
system.l2.WritebackDirty_accesses::.writebacks         7319                       # number of WritebackDirty accesses(hits+misses)
system.l2.WritebackDirty_accesses::total         7319                       # number of WritebackDirty accesses(hits+misses)
system.l2.WritebackClean_hits::.writebacks          438                       # number of WritebackClean hits
system.l2.WritebackClean_hits::total              438                       # number of WritebackClean hits
system.l2.WritebackClean_accesses::.writebacks          438                       # number of WritebackClean accesses(hits+misses)
system.l2.WritebackClean_accesses::total          438                       # number of WritebackClean accesses(hits+misses)
system.l2.ReadExReq_hits::.cpu.data                 1                       # number of ReadExReq hits
system.l2.ReadExReq_hits::total                     1                       # number of ReadExReq hits
system.l2.ReadExReq_misses::.cpu.data            7453                       # number of ReadExReq misses
system.l2.ReadExReq_misses::total                7453                       # number of ReadExReq misses
system.l2.ReadExReq_miss_latency::.cpu.data    639653000                       # number of ReadExReq miss cycles
system.l2.ReadExReq_miss_latency::total     639653000                       # number of ReadExReq miss cycles
system.l2.ReadExReq_accesses::.cpu.data          7454                       # number of ReadExReq accesses(hits+misses)
system.l2.ReadExReq_accesses::total              7454                       # number of ReadExReq accesses(hits+misses)
system.l2.ReadExReq_miss_rate::.cpu.data     0.999866                       # miss rate for ReadExReq accesses
system.l2.ReadExReq_miss_rate::total         0.999866                       # miss rate for ReadExReq accesses
system.l2.ReadExReq_avg_miss_latency::.cpu.data 85824.902724                       # average ReadExReq miss latency
system.l2.ReadExReq_avg_miss_latency::total 85824.902724                       # average ReadExReq miss latency
system.l2.ReadExReq_mshr_misses::.cpu.data         7453                       # number of ReadExReq MSHR misses
system.l2.ReadExReq_mshr_misses::total           7453                       # number of ReadExReq MSHR misses
system.l2.ReadExReq_mshr_miss_latency::.cpu.data    565143000                       # number of ReadExReq MSHR miss cycles
system.l2.ReadExReq_mshr_miss_latency::total    565143000                       # number of ReadExReq MSHR miss cycles
system.l2.ReadExReq_mshr_miss_rate::.cpu.data     0.999866                       # mshr miss rate for ReadExReq accesses
system.l2.ReadExReq_mshr_miss_rate::total     0.999866                       # mshr miss rate for ReadExReq accesses
system.l2.ReadExReq_avg_mshr_miss_latency::.cpu.data 75827.586207                       # average ReadExReq mshr miss latency
system.l2.ReadExReq_avg_mshr_miss_latency::total 75827.586207                       # average ReadExReq mshr miss latency
system.l2.ReadCleanReq_hits::.cpu.inst            224                       # number of ReadCleanReq hits
system.l2.ReadCleanReq_hits::total                224                       # number of ReadCleanReq hits
system.l2.ReadCleanReq_misses::.cpu.inst          613                       # number of ReadCleanReq misses
system.l2.ReadCleanReq_misses::total              613                       # number of ReadCleanReq misses
system.l2.ReadCleanReq_miss_latency::.cpu.inst     48001000                       # number of ReadCleanReq miss cycles
system.l2.ReadCleanReq_miss_latency::total     48001000                       # number of ReadCleanReq miss cycles
system.l2.ReadCleanReq_accesses::.cpu.inst          837                       # number of ReadCleanReq accesses(hits+misses)
system.l2.ReadCleanReq_accesses::total            837                       # number of ReadCleanReq accesses(hits+misses)
system.l2.ReadCleanReq_miss_rate::.cpu.inst     0.732378                       # miss rate for ReadCleanReq accesses
system.l2.ReadCleanReq_miss_rate::total      0.732378                       # miss rate for ReadCleanReq accesses
system.l2.ReadCleanReq_avg_miss_latency::.cpu.inst 78305.057096                       # average ReadCleanReq miss latency
system.l2.ReadCleanReq_avg_miss_latency::total 78305.057096                       # average ReadCleanReq miss latency
system.l2.ReadCleanReq_mshr_misses::.cpu.inst          613                       # number of ReadCleanReq MSHR misses
system.l2.ReadCleanReq_mshr_misses::total          613                       # number of ReadCleanReq MSHR misses
system.l2.ReadCleanReq_mshr_miss_latency::.cpu.inst     41871000                       # number of ReadCleanReq MSHR miss cycles
system.l2.ReadCleanReq_mshr_miss_latency::total     41871000                       # number of ReadCleanReq MSHR miss cycles
system.l2.ReadCleanReq_mshr_miss_rate::.cpu.inst     0.732378                       # mshr miss rate for ReadCleanReq accesses
system.l2.ReadCleanReq_mshr_miss_rate::total     0.732378                       # mshr miss rate for ReadCleanReq accesses
[...]
system.cpu.dcache.overall_misses::total         63106                       # number of overall misses
system.cpu.dcache.demand_miss_latency::.cpu.data   4659293470                       # number of demand (read+write) miss cycles
system.cpu.dcache.demand_miss_latency::total   4659293470                       # number of demand (read+write) miss cycles
system.cpu.dcache.overall_miss_latency::.cpu.data   4659293470                       # number of overall miss cycles
system.cpu.dcache.overall_miss_latency::total   4659293470                       # number of overall miss cycles
system.cpu.dcache.demand_accesses::.cpu.data       204251                       # number of demand (read+write) accesses
system.cpu.dcache.demand_accesses::total       204251                       # number of demand (read+write) accesses
system.cpu.dcache.overall_accesses::.cpu.data       204307                       # number of overall (read+write) accesses
system.cpu.dcache.overall_accesses::total       204307                       # number of overall (read+write) accesses
system.cpu.dcache.demand_miss_rate::.cpu.data     0.308943                       # miss rate for demand accesses
system.cpu.dcache.demand_miss_rate::total     0.308943                       # miss rate for demand accesses
system.cpu.dcache.overall_miss_rate::.cpu.data     0.308878                       # miss rate for overall accesses
system.cpu.dcache.overall_miss_rate::total     0.308878                       # miss rate for overall accesses
system.cpu.dcache.demand_avg_miss_latency::.cpu.data 73837.492789                       # average overall miss latency
system.cpu.dcache.demand_avg_miss_latency::total 73837.492789                       # average overall miss latency
system.cpu.dcache.overall_avg_miss_latency::.cpu.data 73832.812569                       # average overall miss latency
system.cpu.dcache.overall_avg_miss_latency::total 73832.812569                       # average overall miss latency
system.cpu.dcache.blocked_cycles::no_mshrs        71449                       # number of cycles access was blocked
system.cpu.dcache.blocked_cycles::no_targets            0                       # number of cycles access was blocked
system.cpu.dcache.blocked::no_mshrs              1557                       # number of cycles access was blocked
system.cpu.dcache.blocked::no_targets               0                       # number of cycles access was blocked
system.cpu.dcache.avg_blocked_cycles::no_mshrs    45.888889                       # average number of cycles each access was blocked
system.cpu.dcache.avg_blocked_cycles::no_targets          nan                       # average number of cycles each access was blocked
system.cpu.dcache.writebacks::.writebacks         7319                       # number of writebacks
system.cpu.dcache.writebacks::total              7319                       # number of writebacks
system.cpu.dcache.demand_mshr_hits::.cpu.data        55502                       # number of demand (read+write) MSHR hits
system.cpu.dcache.demand_mshr_hits::total        55502                       # number of demand (read+write) MSHR hits
system.cpu.dcache.overall_mshr_hits::.cpu.data        55502                       # number of overall MSHR hits
system.cpu.dcache.overall_mshr_hits::total        55502                       # number of overall MSHR hits
system.cpu.dcache.demand_mshr_misses::.cpu.data         7600                       # number of demand (read+write) MSHR misses
system.cpu.dcache.demand_mshr_misses::total         7600                       # number of demand (read+write) MSHR misses
system.cpu.dcache.overall_mshr_misses::.cpu.data         7603                       # number of overall MSHR misses
system.cpu.dcache.overall_mshr_misses::total         7603                       # number of overall MSHR misses
system.cpu.dcache.demand_mshr_miss_latency::.cpu.data    662767996                       # number of demand (read+write) MSHR miss cycles
system.cpu.dcache.demand_mshr_miss_latency::total    662767996                       # number of demand (read+write) MSHR miss cycles
system.cpu.dcache.overall_mshr_miss_latency::.cpu.data    663001996                       # number of overall MSHR miss cycles
system.cpu.dcache.overall_mshr_miss_latency::total    663001996                       # number of overall MSHR miss cycles
system.cpu.dcache.demand_mshr_miss_rate::.cpu.data     0.037209                       # mshr miss rate for demand accesses
system.cpu.dcache.demand_mshr_miss_rate::total     0.037209                       # mshr miss rate for demand accesses
system.cpu.dcache.overall_mshr_miss_rate::.cpu.data     0.037214                       # mshr miss rate for overall accesses
system.cpu.dcache.overall_mshr_miss_rate::total     0.037214                       # mshr miss rate for overall accesses
system.cpu.dcache.demand_avg_mshr_miss_latency::.cpu.data 87206.315263                       # average overall mshr miss latency
system.cpu.dcache.demand_avg_mshr_miss_latency::total 87206.315263                       # average overall mshr miss latency
system.cpu.dcache.overall_avg_mshr_miss_latency::.cpu.data 87202.682625                       # average overall mshr miss latency
system.cpu.dcache.overall_avg_mshr_miss_latency::total 87202.682625                       # average overall mshr miss latency
system.cpu.dcache.replacements                   7332                       # number of replacements
system.cpu.dcache.ReadReq_hits::.cpu.data       136014                       # number of ReadReq hits
system.cpu.dcache.ReadReq_hits::total          136014                       # number of ReadReq hits
system.cpu.dcache.ReadReq_misses::.cpu.data          301                       # number of ReadReq misses
system.cpu.dcache.ReadReq_misses::total           301                       # number of ReadReq misses
system.cpu.dcache.ReadReq_miss_latency::.cpu.data     23556000                       # number of ReadReq miss cycles
system.cpu.dcache.ReadReq_miss_latency::total     23556000                       # number of ReadReq miss cycles
system.cpu.dcache.ReadReq_accesses::.cpu.data       136315                       # number of ReadReq accesses(hits+misses)
system.cpu.dcache.ReadReq_accesses::total       136315                       # number of ReadReq accesses(hits+misses)
system.cpu.dcache.ReadReq_miss_rate::.cpu.data     0.002208                       # miss rate for ReadReq accesses
system.cpu.dcache.ReadReq_miss_rate::total     0.002208                       # miss rate for ReadReq accesses
system.cpu.dcache.ReadReq_avg_miss_latency::.cpu.data 78259.136213                       # average ReadReq miss latency
system.cpu.dcache.ReadReq_avg_miss_latency::total 78259.136213                       # average ReadReq miss latency
system.cpu.dcache.ReadReq_mshr_hits::.cpu.data          162                       # number of ReadReq MSHR hits
system.cpu.dcache.ReadReq_mshr_hits::total          162                       # number of ReadReq MSHR hits
system.cpu.dcache.ReadReq_mshr_misses::.cpu.data          139                       # number of ReadReq MSHR misses
system.cpu.dcache.ReadReq_mshr_misses::total          139                       # number of ReadReq MSHR misses
system.cpu.dcache.ReadReq_mshr_miss_latency::.cpu.data     11707000                       # number of ReadReq MSHR miss cycles
system.cpu.dcache.ReadReq_mshr_miss_latency::total     11707000                       # number of ReadReq MSHR miss cycles
system.cpu.dcache.ReadReq_mshr_miss_rate::.cpu.data     0.001020                       # mshr miss rate for ReadReq accesses
system.cpu.dcache.ReadReq_mshr_miss_rate::total     0.001020                       # mshr miss rate for ReadReq accesses
system.cpu.dcache.ReadReq_avg_mshr_miss_latency::.cpu.data 84223.021583                       # average ReadReq mshr miss latency
system.cpu.dcache.ReadReq_avg_mshr_miss_latency::total 84223.021583                       # average ReadReq mshr miss latency
system.cpu.dcache.WriteReq_hits::.cpu.data         5135                       # number of WriteReq hits
system.cpu.dcache.WriteReq_hits::total           5135                       # number of WriteReq hits
system.cpu.dcache.WriteReq_misses::.cpu.data        62794                       # number of WriteReq misses
system.cpu.dcache.WriteReq_misses::total        62794                       # number of WriteReq misses
system.cpu.dcache.WriteReq_miss_latency::.cpu.data   4635514972                       # number of WriteReq miss cycles
system.cpu.dcache.WriteReq_miss_latency::total   4635514972                       # number of WriteReq miss cycles
system.cpu.dcache.WriteReq_accesses::.cpu.data        67929                       # number of WriteReq accesses(hits+misses)
system.cpu.dcache.WriteReq_accesses::total        67929                       # number of WriteReq accesses(hits+misses)
system.cpu.dcache.WriteReq_miss_rate::.cpu.data     0.924406                       # miss rate for WriteReq accesses
system.cpu.dcache.WriteReq_miss_rate::total     0.924406                       # miss rate for WriteReq accesses
system.cpu.dcache.WriteReq_avg_miss_latency::.cpu.data 73820.985636                       # average WriteReq miss latency
system.cpu.dcache.WriteReq_avg_miss_latency::total 73820.985636                       # average WriteReq miss latency
system.cpu.dcache.WriteReq_mshr_hits::.cpu.data        55340                       # number of WriteReq MSHR hits
system.cpu.dcache.WriteReq_mshr_hits::total        55340                       # number of WriteReq MSHR hits
system.cpu.dcache.WriteReq_mshr_misses::.cpu.data         7454                       # number of WriteReq MSHR misses
system.cpu.dcache.WriteReq_mshr_misses::total         7454                       # number of WriteReq MSHR misses
system.cpu.dcache.WriteReq_mshr_miss_latency::.cpu.data    650845498                       # number of WriteReq MSHR miss cycles
system.cpu.dcache.WriteReq_mshr_miss_latency::total    650845498                       # number of WriteReq MSHR miss cycles
system.cpu.dcache.WriteReq_mshr_miss_rate::.cpu.data     0.109732                       # mshr miss rate for WriteReq accesses
system.cpu.dcache.WriteReq_mshr_miss_rate::total     0.109732                       # mshr miss rate for WriteReq accesses
system.cpu.dcache.WriteReq_avg_mshr_miss_latency::.cpu.data 87314.931312                       # average WriteReq mshr miss latency
system.cpu.dcache.WriteReq_avg_mshr_miss_latency::total 87314.931312                       # average WriteReq mshr miss latency
system.cpu.dcache.SoftPFReq_hits::.cpu.data           52                       # number of SoftPFReq hits
system.cpu.dcache.SoftPFReq_hits::total            52                       # number of SoftPFReq hits
system.cpu.dcache.SoftPFReq_misses::.cpu.data            4                       # number of SoftPFReq misses
system.cpu.dcache.SoftPFReq_misses::total            4                       # number of SoftPFReq misses
system.cpu.dcache.SoftPFReq_accesses::.cpu.data           56                       # number of SoftPFReq accesses(hits+misses)
system.cpu.dcache.SoftPFReq_accesses::total           56                       # number of SoftPFReq accesses(hits+misses)
system.cpu.dcache.SoftPFReq_miss_rate::.cpu.data     0.071429                       # miss rate for SoftPFReq accesses
system.cpu.dcache.SoftPFReq_miss_rate::total     0.071429                       # miss rate for SoftPFReq accesses
system.cpu.dcache.SoftPFReq_mshr_misses::.cpu.data            3                       # number of SoftPFReq MSHR misses
system.cpu.dcache.SoftPFReq_mshr_misses::total            3                       # number of SoftPFReq MSHR misses
system.cpu.dcache.SoftPFReq_mshr_miss_latency::.cpu.data       234000                       # number of SoftPFReq MSHR miss cycles
system.cpu.dcache.SoftPFReq_mshr_miss_latency::total       234000                       # number of SoftPFReq MSHR miss cycles
system.cpu.dcache.SoftPFReq_mshr_miss_rate::.cpu.data     0.053571                       # mshr miss rate for SoftPFReq accesses
system.cpu.dcache.SoftPFReq_mshr_miss_rate::total     0.053571                       # mshr miss rate for SoftPFReq accesses
system.cpu.dcache.SoftPFReq_avg_mshr_miss_latency::.cpu.data        78000                       # average SoftPFReq mshr miss latency
system.cpu.dcache.SoftPFReq_avg_mshr_miss_latency::total        78000                       # average SoftPFReq mshr miss latency
system.cpu.dcache.WriteLineReq_misses::.cpu.data            7                       # number of WriteLineReq misses
system.cpu.dcache.WriteLineReq_misses::total            7                       # number of WriteLineReq misses
system.cpu.dcache.WriteLineReq_miss_latency::.cpu.data       222498                       # number of WriteLineReq miss cycles
system.cpu.dcache.WriteLineReq_miss_latency::total       222498                       # number of WriteLineReq miss cycles
system.cpu.dcache.WriteLineReq_accesses::.cpu.data            7                       # number of WriteLineReq accesses(hits+misses)
system.cpu.dcache.WriteLineReq_accesses::total            7                       # number of WriteLineReq accesses(hits+misses)
system.cpu.dcache.WriteLineReq_miss_rate::.cpu.data            1                       # miss rate for WriteLineReq accesses
system.cpu.dcache.WriteLineReq_miss_rate::total            1                       # miss rate for WriteLineReq accesses
system.cpu.dcache.WriteLineReq_avg_miss_latency::.cpu.data 31785.428571                       # average WriteLineReq miss latency
system.cpu.dcache.WriteLineReq_avg_miss_latency::total 31785.428571                       # average WriteLineReq miss latency
system.cpu.dcache.WriteLineReq_mshr_misses::.cpu.data            7                       # number of WriteLineReq MSHR misses
system.cpu.dcache.WriteLineReq_mshr_misses::total            7                       # number of WriteLineReq MSHR misses
system.cpu.dcache.WriteLineReq_mshr_miss_latency::.cpu.data       215498                       # number of WriteLineReq MSHR miss cycles
system.cpu.dcache.WriteLineReq_mshr_miss_latency::total       215498                       # number of WriteLineReq MSHR miss cycles
system.cpu.dcache.WriteLineReq_mshr_miss_rate::.cpu.data            1                       # mshr miss rate for WriteLineReq accesses
system.cpu.dcache.WriteLineReq_mshr_miss_rate::total            1                       # mshr miss rate for WriteLineReq accesses
system.cpu.dcache.WriteLineReq_avg_mshr_miss_latency::.cpu.data 30785.428571                       # average WriteLineReq mshr miss latency
system.cpu.dcache.WriteLineReq_avg_mshr_miss_latency::total 30785.428571                       # average WriteLineReq mshr miss latency
system.cpu.dcache.LoadLockedReq_hits::.cpu.data          168                       # number of LoadLockedReq hits
system.cpu.dcache.LoadLockedReq_hits::total          168                       # number of LoadLockedReq hits
system.cpu.dcache.LoadLockedReq_misses::.cpu.data            1                       # number of LoadLockedReq misses
system.cpu.dcache.LoadLockedReq_misses::total            1                       # number of LoadLockedReq misses
system.cpu.dcache.LoadLockedReq_miss_latency::.cpu.data        88000                       # number of LoadLockedReq miss cycles
system.cpu.dcache.LoadLockedReq_miss_latency::total        88000                       # number of LoadLockedReq miss cycles
system.cpu.dcache.LoadLockedReq_accesses::.cpu.data          169                       # number of LoadLockedReq accesses(hits+misses)
system.cpu.dcache.LoadLockedReq_accesses::total          169                       # number of LoadLockedReq accesses(hits+misses)
system.cpu.dcache.LoadLockedReq_miss_rate::.cpu.data     0.005917                       # miss rate for LoadLockedReq accesses
system.cpu.dcache.LoadLockedReq_miss_rate::total     0.005917                       # miss rate for LoadLockedReq accesses
system.cpu.dcache.LoadLockedReq_avg_miss_latency::.cpu.data        88000                       # average LoadLockedReq miss latency
system.cpu.dcache.LoadLockedReq_avg_miss_latency::total        88000                       # average LoadLockedReq miss latency
system.cpu.dcache.LoadLockedReq_mshr_misses::.cpu.data            1                       # number of LoadLockedReq MSHR misses
system.cpu.dcache.LoadLockedReq_mshr_misses::total            1                       # number of LoadLockedReq MSHR misses
system.cpu.dcache.LoadLockedReq_mshr_miss_latency::.cpu.data        87000                       # number of LoadLockedReq MSHR miss cycles
system.cpu.dcache.LoadLockedReq_mshr_miss_latency::total        87000                       # number of LoadLockedReq MSHR miss cycles
system.cpu.dcache.LoadLockedReq_mshr_miss_rate::.cpu.data     0.005917                       # mshr miss rate for LoadLockedReq accesses
system.cpu.dcache.LoadLockedReq_mshr_miss_rate::total     0.005917                       # mshr miss rate for LoadLockedReq accesses
system.cpu.dcache.LoadLockedReq_avg_mshr_miss_latency::.cpu.data        87000                       # average LoadLockedReq mshr miss latency
system.cpu.dcache.LoadLockedReq_avg_mshr_miss_latency::total        87000                       # average LoadLockedReq mshr miss latency
system.cpu.dcache.StoreCondReq_hits::.cpu.data          142                       # number of StoreCondReq hits
system.cpu.dcache.StoreCondReq_hits::total          142                       # number of StoreCondReq hits
system.cpu.dcache.StoreCondReq_accesses::.cpu.data          142                       # number of StoreCondReq accesses(hits+misses)
system.cpu.dcache.StoreCondReq_accesses::total          142                       # number of StoreCondReq accesses(hits+misses)
system.cpu.dcache.power_state.pwrStateResidencyTicks::UNDEFINED    396873500                       # Cumulative time (in ticks) in various power states
system.cpu.dcache.tags.tagsinuse           258.335641                       # Cycle average of tags in use
system.cpu.dcache.tags.total_refs              149113                       # Total number of references to valid blocks.
system.cpu.dcache.tags.sampled_refs              7602                       # Sample count of references to valid blocks.
system.cpu.dcache.tags.avg_refs             19.614970                       # Average number of references to valid blocks.
system.cpu.dcache.tags.warmup_cycle            249500                       # Cycle when the warmup percentage was hit.
system.cpu.dcache.tags.occ_blocks::.cpu.data   258.335641                       # Average occupied blocks per requestor
system.cpu.dcache.tags.occ_percent::.cpu.data     0.504562                       # Average percentage of cache occupancy
system.cpu.dcache.tags.occ_percent::total     0.504562                       # Average percentage of cache occupancy
system.cpu.dcache.tags.occ_task_id_blocks::1024          270                       # Occupied blocks per task id
system.cpu.dcache.tags.age_task_id_blocks_1024::0           32                       # Occupied blocks per task id
system.cpu.dcache.tags.age_task_id_blocks_1024::2          238                       # Occupied blocks per task id
system.cpu.dcache.tags.occ_task_id_percent::1024     0.527344                       # Percentage of cache occupancy per task id
system.cpu.dcache.tags.tag_accesses            416838                       # Number of tag accesses
system.cpu.dcache.tags.data_accesses           416838                       # Number of data accesses
system.cpu.dcache.tags.power_state.pwrStateResidencyTicks::UNDEFINED    396873500                       # Cumulative time (in ticks) in various power states
system.cpu.power_state.pwrStateResidencyTicks::ON    396873500                       # Cumulative time (in ticks) in various power states

---------- End Simulation Statistics   ----------
