
---------- Begin Simulation Statistics ----------
final_tick                                  317412000                       # Number of ticks from beginning of simulation (restored from checkpoints and never reset)
host_inst_rate                                 124270                       # Simulator instruction rate (inst/s)
host_mem_usage                                 856216                       # Number of bytes of host memory used
host_op_rate                                   131017                       # Simulator op (including micro ops) rate (op/s)
host_seconds                                     4.02                       # Real time elapsed on the host
host_tick_rate                               78885961                       # Simulator tick rate (ticks/s)
sim_freq                                 1000000000000                       # Frequency of simulated ticks
sim_insts                                      500000                       # Number of instructions simulated
sim_ops                                        527167                       # Number of ops (including micro ops) simulated
sim_seconds                                  0.000317                       # Number of seconds simulated
sim_ticks                                   317412000                       # Number of ticks simulated
system.cpu.branchPred.BTBCorrect                    0                       # Number of correct BTB predictions (this stat may not work properly.
system.cpu.branchPred.BTBHitPct             98.537070                       # BTB Hit Percentage
system.cpu.branchPred.BTBHits                  122992                       # Number of BTB hits
system.cpu.branchPred.BTBLookups               124818                       # Number of BTB lookups
system.cpu.branchPred.RASInCorrect                  9                       # Number of incorrect RAS predictions.
system.cpu.branchPred.condIncorrect              3114                       # Number of conditional branches incorrect
system.cpu.branchPred.condPredicted            137475                       # Number of conditional branches predicted
system.cpu.branchPred.indirectHits               1729                       # Number of indirect target hits.
system.cpu.branchPred.indirectLookups            2702                       # Number of indirect predictor lookups.
system.cpu.branchPred.indirectMisses              973                       # Number of indirect misses.
system.cpu.branchPred.lookups                  152544                       # Number of BP lookups
system.cpu.branchPred.loop_predictor.loopPredictorCorrect        97627                       # Number of times the loop predictor is the provider and the prediction is correct
system.cpu.branchPred.loop_predictor.loopPredictorWrong        13124                       # Number of times the loop predictor is the provider and the prediction is wrong
system.cpu.branchPred.statistical_corrector.scPredictorCorrect        13010                       # Number of time the SC predictor is the provider and the prediction is correct
system.cpu.branchPred.statistical_corrector.scPredictorWrong        97741                       # Number of time the SC predictor is the provider and the prediction is wrong
system.cpu.branchPred.tage.bimodalAltMatchProviderCorrect          236                       # Number of times TAGE Alt Match is the bimodal and it is the provider and the prediction is correct
system.cpu.branchPred.tage.bimodalAltMatchProviderWrong           71                       # Number of times TAGE Alt Match is the bimodal and it is the provider and the prediction is wrong
system.cpu.branchPred.tage.tageAltMatchProvider::0         3485                       # TAGE provider for alt match
system.cpu.branchPred.tage.tageAltMatchProvider::1            0                       # TAGE provider for alt match
system.cpu.branchPred.tage.tageAltMatchProvider::2         2339                       # TAGE provider for alt match
system.cpu.branchPred.tage.tageAltMatchProvider::3            0                       # TAGE provider for alt match
system.cpu.branchPred.tage.tageAltMatchProvider::4           97                       # TAGE provider for alt match
system.cpu.branchPred.tage.tageAltMatchProvider::5            0                       # TAGE provider for alt match
system.cpu.branchPred.tage.tageAltMatchProvider::6          176                       # TAGE provider for alt match
system.cpu.branchPred.tage.tageAltMatchProvider::7         2489                       # TAGE provider for alt match
system.cpu.branchPred.tage.tageAltMatchProvider::8         2967                       # TAGE provider for alt match
system.cpu.branchPred.tage.tageAltMatchProvider::9         3567                       # TAGE provider for alt match
system.cpu.branchPred.tage.tageAltMatchProvider::10          175                       # TAGE provider for alt match
system.cpu.branchPred.tage.tageAltMatchProvider::11          149                       # TAGE provider for alt match
system.cpu.branchPred.tage.tageAltMatchProvider::12         6039                       # TAGE provider for alt match
system.cpu.branchPred.tage.tageAltMatchProvider::13         9892                       # TAGE provider for alt match
system.cpu.branchPred.tage.tageAltMatchProvider::14          123                       # TAGE provider for alt match
system.cpu.branchPred.tage.tageAltMatchProvider::15          811                       # TAGE provider for alt match
system.cpu.branchPred.tage.tageAltMatchProvider::16        12760                       # TAGE provider for alt match
system.cpu.branchPred.tage.tageAltMatchProvider::17        20355                       # TAGE provider for alt match
system.cpu.branchPred.tage.tageAltMatchProvider::18           45                       # TAGE provider for alt match
system.cpu.branchPred.tage.tageAltMatchProvider::19          900                       # TAGE provider for alt match
system.cpu.branchPred.tage.tageAltMatchProvider::20         5824                       # TAGE provider for alt match
system.cpu.branchPred.tage.tageAltMatchProvider::21            0                       # TAGE provider for alt match
system.cpu.branchPred.tage.tageAltMatchProvider::22          308                       # TAGE provider for alt match
system.cpu.branchPred.tage.tageAltMatchProvider::23            0                       # TAGE provider for alt match
system.cpu.branchPred.tage.tageAltMatchProvider::24          247                       # TAGE provider for alt match
system.cpu.branchPred.tage.tageAltMatchProvider::25            0                       # TAGE provider for alt match
system.cpu.branchPred.tage.tageAltMatchProvider::26         1078                       # TAGE provider for alt match
system.cpu.branchPred.tage.tageAltMatchProvider::27            0                       # TAGE provider for alt match
system.cpu.branchPred.tage.tageAltMatchProvider::28         1366                       # TAGE provider for alt match
system.cpu.branchPred.tage.tageAltMatchProvider::29            0                       # TAGE provider for alt match
system.cpu.branchPred.tage.tageAltMatchProvider::30            0                       # TAGE provider for alt match
system.cpu.branchPred.tage.tageAltMatchProviderCorrect          482                       # Number of times TAGE Alt Match is the provider and the prediction is correct
system.cpu.branchPred.tage.tageAltMatchProviderWouldHaveHit          212                       # Number of times TAGE Longest Match is the provider, the prediction is wrong and Alt Match prediction was correct
system.cpu.branchPred.tage.tageAltMatchProviderWrong          196                       # Number of times TAGE Alt Match is the provider and the prediction is wrong
system.cpu.branchPred.tage.tageBimodalProviderCorrect        23950                       # Number of times there are no hits on the TAGE tables and the bimodal prediction is correct
system.cpu.branchPred.tage.tageBimodalProviderWrong          811                       # Number of times there are no hits on the TAGE tables and the bimodal prediction is wrong
system.cpu.branchPred.tage.tageLongestMatchProvider::0            0                       # TAGE provider for longest match
system.cpu.branchPred.tage.tageLongestMatchProvider::1            0                       # TAGE provider for longest match
system.cpu.branchPred.tage.tageLongestMatchProvider::2         2412                       # TAGE provider for longest match
system.cpu.branchPred.tage.tageLongestMatchProvider::3            0                       # TAGE provider for longest match
system.cpu.branchPred.tage.tageLongestMatchProvider::4          107                       # TAGE provider for longest match
system.cpu.branchPred.tage.tageLongestMatchProvider::5            0                       # TAGE provider for longest match
system.cpu.branchPred.tage.tageLongestMatchProvider::6         2629                       # TAGE provider for longest match
system.cpu.branchPred.tage.tageLongestMatchProvider::7          412                       # TAGE provider for longest match
system.cpu.branchPred.tage.tageLongestMatchProvider::8         2287                       # TAGE provider for longest match
system.cpu.branchPred.tage.tageLongestMatchProvider::9         2963                       # TAGE provider for longest match
system.cpu.branchPred.tage.tageLongestMatchProvider::10          673                       # TAGE provider for longest match
system.cpu.branchPred.tage.tageLongestMatchProvider::11          914                       # TAGE provider for longest match
system.cpu.branchPred.tage.tageLongestMatchProvider::12         2852                       # TAGE provider for longest match
system.cpu.branchPred.tage.tageLongestMatchProvider::13         6049                       # TAGE provider for longest match
system.cpu.branchPred.tage.tageLongestMatchProvider::14          126                       # TAGE provider for longest match
system.cpu.branchPred.tage.tageLongestMatchProvider::15          146                       # TAGE provider for longest match
system.cpu.branchPred.tage.tageLongestMatchProvider::16         9919                       # TAGE provider for longest match
system.cpu.branchPred.tage.tageLongestMatchProvider::17        12761                       # TAGE provider for longest match
system.cpu.branchPred.tage.tageLongestMatchProvider::18          695                       # TAGE provider for longest match
system.cpu.branchPred.tage.tageLongestMatchProvider::19           31                       # TAGE provider for longest match
system.cpu.branchPred.tage.tageLongestMatchProvider::20        20335                       # TAGE provider for longest match
system.cpu.branchPred.tage.tageLongestMatchProvider::21            0                       # TAGE provider for longest match
system.cpu.branchPred.tage.tageLongestMatchProvider::22         6591                       # TAGE provider for longest match
system.cpu.branchPred.tage.tageLongestMatchProvider::23            0                       # TAGE provider for longest match
system.cpu.branchPred.tage.tageLongestMatchProvider::24          311                       # TAGE provider for longest match
system.cpu.branchPred.tage.tageLongestMatchProvider::25            0                       # TAGE provider for longest match
system.cpu.branchPred.tage.tageLongestMatchProvider::26          240                       # TAGE provider for longest match
system.cpu.branchPred.tage.tageLongestMatchProvider::27            0                       # TAGE provider for longest match
system.cpu.branchPred.tage.tageLongestMatchProvider::28          326                       # TAGE provider for longest match
system.cpu.branchPred.tage.tageLongestMatchProvider::29            0                       # TAGE provider for longest match
system.cpu.branchPred.tage.tageLongestMatchProvider::30         2413                       # TAGE provider for longest match
system.cpu.branchPred.tage.tageLongestMatchProviderCorrect        73839                       # Number of times TAGE Longest Match is the provider and the prediction is correct
system.cpu.branchPred.tage.tageLongestMatchProviderWouldHaveHit          100                       # Number of times TAGE Alt Match is the provider, the prediction is wrong and Longest Match prediction was correct
system.cpu.branchPred.tage.tageLongestMatchProviderWrong          675                       # Number of times TAGE Longest Match is the provider and the prediction is wrong
system.cpu.branchPred.usedRAS                    5816                       # Number of times the RAS was used to get a target.
system.cpu.branchPredindirectMispredicted          229                       # Number of mispredicted indirect branches.
system.cpu.cc_regfile_reads                    336989                       # number of cc regfile reads
system.cpu.cc_regfile_writes                   338550                       # number of cc regfile writes
system.cpu.commit.amos                              0                       # Number of atomic instructions committed
system.cpu.commit.branchMispredicts              2495                       # The number of times a branch was mispredicted
system.cpu.commit.branches                     121767                       # Number of branches committed
system.cpu.commit.bw_lim_events                 10401                       # number cycles where commit BW limit reached
system.cpu.commit.commitNonSpecStalls             174                       # The number of times commit has been forced to stall to communicate backwards
system.cpu.commit.commitSquashedInsts           62802                       # The number of squashed insts skipped by commit
system.cpu.commit.committedInsts               501042                       # Number of instructions committed
system.cpu.commit.committedOps                 528209                       # Number of ops (including micro ops) committed
system.cpu.commit.committed_per_cycle::samples       558634                       # Number of insts commited each cycle
system.cpu.commit.committed_per_cycle::mean     0.945537                       # Number of insts commited each cycle
system.cpu.commit.committed_per_cycle::stdev     1.773279                       # Number of insts commited each cycle
system.cpu.commit.committed_per_cycle::underflows            0      0.00%      0.00% # Number of insts commited each cycle
system.cpu.commit.committed_per_cycle::0       391824     70.14%     70.14% # Number of insts commited each cycle
system.cpu.commit.committed_per_cycle::1        47228      8.45%     78.59% # Number of insts commited each cycle
system.cpu.commit.committed_per_cycle::2        15785      2.83%     81.42% # Number of insts commited each cycle
system.cpu.commit.committed_per_cycle::3        18566      3.32%     84.74% # Number of insts commited each cycle
system.cpu.commit.committed_per_cycle::4        69196     12.39%     97.13% # Number of insts commited each cycle
system.cpu.commit.committed_per_cycle::5         2033      0.36%     97.49% # Number of insts commited each cycle
system.cpu.commit.committed_per_cycle::6         1651      0.30%     97.79% # Number of insts commited each cycle
system.cpu.commit.committed_per_cycle::7         1950      0.35%     98.14% # Number of insts commited each cycle
system.cpu.commit.committed_per_cycle::8        10401      1.86%    100.00% # Number of insts commited each cycle
system.cpu.commit.committed_per_cycle::overflows            0      0.00%    100.00% # Number of insts commited each cycle
system.cpu.commit.committed_per_cycle::min_value            0                       # Number of insts commited each cycle
system.cpu.commit.committed_per_cycle::max_value            8                       # Number of insts commited each cycle
system.cpu.commit.committed_per_cycle::total       558634                       # Number of insts commited each cycle
system.cpu.commit.fp_insts                          0                       # Number of committed floating point instructions.
system.cpu.commit.function_calls                 4620                       # Number of function calls committed.
system.cpu.commit.int_insts                    425736                       # Number of committed integer instructions.
system.cpu.commit.loads                         35378                       # Number of loads committed
system.cpu.commit.membars                         138                       # Number of memory barriers committed
system.cpu.commit.op_class_0::No_OpClass            3      0.00%      0.00% # Class of committed instruction
system.cpu.commit.op_class_0::IntAlu           378885     71.73%     71.73% # Class of committed instruction
system.cpu.commit.op_class_0::IntMult             384      0.07%     71.80% # Class of committed instruction
system.cpu.commit.op_class_0::IntDiv               94      0.02%     71.82% # Class of committed instruction
system.cpu.commit.op_class_0::FloatAdd              8      0.00%     71.82% # Class of committed instruction
system.cpu.commit.op_class_0::FloatCmp              0      0.00%     71.82% # Class of committed instruction
system.cpu.commit.op_class_0::FloatCvt              0      0.00%     71.82% # Class of committed instruction
system.cpu.commit.op_class_0::FloatMult             0      0.00%     71.82% # Class of committed instruction
system.cpu.commit.op_class_0::FloatMultAcc            0      0.00%     71.82% # Class of committed instruction
system.cpu.commit.op_class_0::FloatDiv              0      0.00%     71.82% # Class of committed instruction
system.cpu.commit.op_class_0::FloatMisc            32      0.01%     71.83% # Class of committed instruction
system.cpu.commit.op_class_0::FloatSqrt             0      0.00%     71.83% # Class of committed instruction
system.cpu.commit.op_class_0::SimdAdd              15      0.00%     71.83% # Class of committed instruction
system.cpu.commit.op_class_0::SimdAddAcc            0      0.00%     71.83% # Class of committed instruction
system.cpu.commit.op_class_0::SimdAlu              10      0.00%     71.83% # Class of committed instruction
system.cpu.commit.op_class_0::SimdCmp              12      0.00%     71.84% # Class of committed instruction
system.cpu.commit.op_class_0::SimdCvt               0      0.00%     71.84% # Class of committed instruction
system.cpu.commit.op_class_0::SimdMisc             72      0.01%     71.85% # Class of committed instruction
system.cpu.commit.op_class_0::SimdMult              0      0.00%     71.85% # Class of committed instruction
system.cpu.commit.op_class_0::SimdMultAcc            0      0.00%     71.85% # Class of committed instruction
system.cpu.commit.op_class_0::SimdShift             0      0.00%     71.85% # Class of committed instruction
system.cpu.commit.op_class_0::SimdShiftAcc            0      0.00%     71.85% # Class of committed instruction
system.cpu.commit.op_class_0::SimdDiv               0      0.00%     71.85% # Class of committed instruction
system.cpu.commit.op_class_0::SimdSqrt              0      0.00%     71.85% # Class of committed instruction
system.cpu.commit.op_class_0::SimdFloatAdd            0      0.00%     71.85% # Class of committed instruction
system.cpu.commit.op_class_0::SimdFloatAlu            0      0.00%     71.85% # Class of committed instruction
system.cpu.commit.op_class_0::SimdFloatCmp            0      0.00%     71.85% # Class of committed instruction
system.cpu.commit.op_class_0::SimdFloatCvt            0      0.00%     71.85% # Class of committed instruction
system.cpu.commit.op_class_0::SimdFloatDiv            0      0.00%     71.85% # Class of committed instruction
system.cpu.commit.op_class_0::SimdFloatMisc            0      0.00%     71.85% # Class of committed instruction
system.cpu.commit.op_class_0::SimdFloatMult            0      0.00%     71.85% # Class of committed instruction
system.cpu.commit.op_class_0::SimdFloatMultAcc            0      0.00%     71.85% # Class of committed instruction
system.cpu.commit.op_class_0::SimdFloatSqrt            0      0.00%     71.85% # Class of committed instruction
system.cpu.commit.op_class_0::SimdReduceAdd            0      0.00%     71.85% # Class of committed instruction
system.cpu.commit.op_class_0::SimdReduceAlu            0      0.00%     71.85% # Class of committed instruction
system.cpu.commit.op_class_0::SimdReduceCmp            0      0.00%     71.85% # Class of committed instruction
system.cpu.commit.op_class_0::SimdFloatReduceAdd            0      0.00%     71.85% # Class of committed instruction
system.cpu.commit.op_class_0::SimdFloatReduceCmp            0      0.00%     71.85% # Class of committed instruction
system.cpu.commit.op_class_0::SimdAes               0      0.00%     71.85% # Class of committed instruction
system.cpu.commit.op_class_0::SimdAesMix            0      0.00%     71.85% # Class of committed instruction
system.cpu.commit.op_class_0::SimdSha1Hash            0      0.00%     71.85% # Class of committed instruction
system.cpu.commit.op_class_0::SimdSha1Hash2            0      0.00%     71.85% # Class of committed instruction
system.cpu.commit.op_class_0::SimdSha256Hash            0      0.00%     71.85% # Class of committed instruction
system.cpu.commit.op_class_0::SimdSha256Hash2            0      0.00%     71.85% # Class of committed instruction
system.cpu.commit.op_class_0::SimdShaSigma2            0      0.00%     71.85% # Class of committed instruction
system.cpu.commit.op_class_0::SimdShaSigma3            0      0.00%     71.85% # Class of committed instruction
system.cpu.commit.op_class_0::SimdPredAlu            0      0.00%     71.85% # Class of committed instruction
system.cpu.commit.op_class_0::MemRead           35378      6.70%     78.55% # Class of committed instruction
system.cpu.commit.op_class_0::MemWrite         113316     21.45%    100.00% # Class of committed instruction
system.cpu.commit.op_class_0::FloatMemRead            0      0.00%    100.00% # Class of committed instruction
system.cpu.commit.op_class_0::FloatMemWrite            0      0.00%    100.00% # Class of committed instruction
system.cpu.commit.op_class_0::IprAccess             0      0.00%    100.00% # Class of committed instruction
system.cpu.commit.op_class_0::InstPrefetch            0      0.00%    100.00% # Class of committed instruction
system.cpu.commit.op_class_0::total            528209                       # Class of committed instruction
system.cpu.commit.refs                         148694                       # Number of memory references committed
system.cpu.commit.swp_count                         0                       # Number of s/w prefetches committed
system.cpu.commit.vec_insts                      2101                       # Number of committed Vector instructions.
system.cpu.committedInsts                      500000                       # Number of Instructions Simulated
system.cpu.committedOps                        527167                       # Number of Ops (including micro ops) Simulated
system.cpu.cpi                               1.269650                       # CPI: Cycles Per Instruction
system.cpu.cpi_total                         1.269650                       # CPI: Total CPI of All Threads
system.cpu.decode.BlockedCycles                403823                       # Number of cycles decode is blocked
system.cpu.decode.BranchMispred                   633                       # Number of times decode detected a branch misprediction
system.cpu.decode.BranchResolved               117071                       # Number of times decode resolved a branch
system.cpu.decode.DecodedInsts                 622674                       # Number of instructions handled by decode
system.cpu.decode.IdleCycles                    64568                       # Number of cycles decode is idle
system.cpu.decode.RunCycles                     73985                       # Number of cycles decode is running
system.cpu.decode.SquashCycles                   2747                       # Number of cycles decode is squashing
system.cpu.decode.SquashedInsts                  2198                       # Number of squashed instructions handled by decode
system.cpu.decode.UnblockCycles                 22764                       # Number of cycles decode is unblocking
system.cpu.dtb.accesses                             0                       # DTB accesses
system.cpu.dtb.align_faults                         0                       # Number of TLB faults due to alignment restrictions
system.cpu.dtb.domain_faults                        0                       # Number of TLB faults due to domain restrictions
system.cpu.dtb.flush_entries                        0                       # Number of entries that have been flushed from TLB
system.cpu.dtb.flush_tlb                            0                       # Number of times complete TLB was flushed
system.cpu.dtb.flush_tlb_asid                       0                       # Number of times TLB was flushed by ASID
system.cpu.dtb.flush_tlb_mva                        0                       # Number of times TLB was flushed by MVA
system.cpu.dtb.flush_tlb_mva_asid                   0                       # Number of times TLB was flushed by MVA & ASID
system.cpu.dtb.hits                                 0                       # DTB hits
system.cpu.dtb.inst_accesses                        0                       # ITB inst accesses
system.cpu.dtb.inst_hits                            0                       # ITB inst hits
system.cpu.dtb.inst_misses                          0                       # ITB inst misses
system.cpu.dtb.misses                               0                       # DTB misses
system.cpu.dtb.perms_faults                         0                       # Number of TLB faults due to permissions restrictions
system.cpu.dtb.prefetch_faults                      0                       # Number of TLB faults due to prefetch
system.cpu.dtb.read_accesses                        0                       # DTB read accesses
system.cpu.dtb.read_hits                            0                       # DTB read hits
system.cpu.dtb.read_misses                          0                       # DTB read misses
system.cpu.dtb.stage2_mmu.stage2_tlb.accesses            0                       # DTB accesses
system.cpu.dtb.stage2_mmu.stage2_tlb.align_faults            0                       # Number of TLB faults due to alignment restrictions
system.cpu.dtb.stage2_mmu.stage2_tlb.domain_faults            0                       # Number of TLB faults due to domain restrictions
system.cpu.dtb.stage2_mmu.stage2_tlb.flush_entries            0                       # Number of entries that have been flushed from TLB
system.cpu.dtb.stage2_mmu.stage2_tlb.flush_tlb            0                       # Number of times complete TLB was flushed
system.cpu.dtb.stage2_mmu.stage2_tlb.flush_tlb_asid            0                       # Number of times TLB was flushed by ASID
system.cpu.dtb.stage2_mmu.stage2_tlb.flush_tlb_mva            0                       # Number of times TLB was flushed by MVA
system.cpu.dtb.stage2_mmu.stage2_tlb.flush_tlb_mva_asid            0                       # Number of times TLB was flushed by MVA & ASID
system.cpu.dtb.stage2_mmu.stage2_tlb.hits            0                       # DTB hits
system.cpu.dtb.stage2_mmu.stage2_tlb.inst_accesses            0                       # ITB inst accesses
system.cpu.dtb.stage2_mmu.stage2_tlb.inst_hits            0                       # ITB inst hits
system.cpu.dtb.stage2_mmu.stage2_tlb.inst_misses            0                       # ITB inst misses
system.cpu.dtb.stage2_mmu.stage2_tlb.misses            0                       # DTB misses
system.cpu.dtb.stage2_mmu.stage2_tlb.perms_faults            0                       # Number of TLB faults due to permissions restrictions
system.cpu.dtb.stage2_mmu.stage2_tlb.prefetch_faults            0                       # Number of TLB faults due to prefetch
system.cpu.dtb.stage2_mmu.stage2_tlb.read_accesses            0                       # DTB read accesses
system.cpu.dtb.stage2_mmu.stage2_tlb.read_hits            0                       # DTB read hits
system.cpu.dtb.stage2_mmu.stage2_tlb.read_misses            0                       # DTB read misses
system.cpu.dtb.stage2_mmu.stage2_tlb.walker.walkRequestOrigin_Requested::Data            0                       # Table walker requests started/completed, data/inst
system.cpu.dtb.stage2_mmu.stage2_tlb.walker.walkRequestOrigin_Requested::Inst            0                       # Table walker requests started/completed, data/inst
system.cpu.dtb.stage2_mmu.stage2_tlb.walker.walkRequestOrigin_Requested::total            0                       # Table walker requests started/completed, data/inst
system.cpu.dtb.stage2_mmu.stage2_tlb.walker.walkRequestOrigin_Completed::Data            0                       # Table walker requests started/completed, data/inst
system.cpu.dtb.stage2_mmu.stage2_tlb.walker.walkRequestOrigin_Completed::Inst            0                       # Table walker requests started/completed, data/inst
system.cpu.dtb.stage2_mmu.stage2_tlb.walker.walkRequestOrigin_Completed::total            0                       # Table walker requests started/completed, data/inst
system.cpu.dtb.stage2_mmu.stage2_tlb.walker.walkRequestOrigin::total            0                       # Table walker requests started/completed, data/inst
system.cpu.dtb.stage2_mmu.stage2_tlb.walker.walks            0                       # Table walker walks requested
system.cpu.dtb.stage2_mmu.stage2_tlb.write_accesses            0                       # DTB write accesses
system.cpu.dtb.stage2_mmu.stage2_tlb.write_hits            0                       # DTB write hits
system.cpu.dtb.stage2_mmu.stage2_tlb.write_misses            0                       # DTB write misses
system.cpu.dtb.walker.walkRequestOrigin_Requested::Data            0                       # Table walker requests started/completed, data/inst
system.cpu.dtb.walker.walkRequestOrigin_Requested::Inst            0                       # Table walker requests started/completed, data/inst
system.cpu.dtb.walker.walkRequestOrigin_Requested::total            0                       # Table walker requests started/completed, data/inst
system.cpu.dtb.walker.walkRequestOrigin_Completed::Data            0                       # Table walker requests started/completed, data/inst
system.cpu.dtb.walker.walkRequestOrigin_Completed::Inst            0                       # Table walker requests started/completed, data/inst
system.cpu.dtb.walker.walkRequestOrigin_Completed::total            0                       # Table walker requests started/completed, data/inst
system.cpu.dtb.walker.walkRequestOrigin::total            0                       # Table walker requests started/completed, data/inst
system.cpu.dtb.walker.walks                         0                       # Table walker walks requested
system.cpu.dtb.write_accesses                       0                       # DTB write accesses
system.cpu.dtb.write_hits                           0                       # DTB write hits
system.cpu.dtb.write_misses                         0                       # DTB write misses
system.cpu.fetch.Branches                      152544                       # Number of branches that fetch encountered
system.cpu.fetch.CacheLines                     33076                       # Number of cache lines fetched
system.cpu.fetch.Cycles                        503864                       # Number of cycles fetch has run and was not squashing or blocked
system.cpu.fetch.IcacheSquashes                  1299                       # Number of outstanding Icache misses that were squashed
system.cpu.fetch.IcacheWaitRetryStallCycles           71                       # Number of stall cycles due to full MSHR
system.cpu.fetch.Insts                         626041                       # Number of instructions fetch has processed
system.cpu.fetch.MiscStallCycles                   61                       # Number of cycles fetch has spent waiting on interrupts, or bad addresses, or out of MSHRs
system.cpu.fetch.SquashCycles                    6732                       # Number of cycles fetch has spent squashing
system.cpu.fetch.branchRate                  0.240293                       # Number of branch fetches per cycle
system.cpu.fetch.icacheStallCycles              60525                       # Number of cycles fetch is stalled on an Icache miss
system.cpu.fetch.predictedBranches             130537                       # Number of branches that fetch has predicted taken
system.cpu.fetch.rate                        0.986163                       # Number of inst fetches per cycle
system.cpu.fetch.rateDist::samples             567887                       # Number of instructions fetched each cycle (Total)
system.cpu.fetch.rateDist::mean              1.161721                       # Number of instructions fetched each cycle (Total)
system.cpu.fetch.rateDist::stdev             2.096994                       # Number of instructions fetched each cycle (Total)
system.cpu.fetch.rateDist::underflows               0      0.00%      0.00% # Number of instructions fetched each cycle (Total)
system.cpu.fetch.rateDist::0                   417651     73.54%     73.54% # Number of instructions fetched each cycle (Total)
system.cpu.fetch.rateDist::1                     5040      0.89%     74.43% # Number of instructions fetched each cycle (Total)
system.cpu.fetch.rateDist::2                     4823      0.85%     75.28% # Number of instructions fetched each cycle (Total)
system.cpu.fetch.rateDist::3                     6304      1.11%     76.39% # Number of instructions fetched each cycle (Total)
system.cpu.fetch.rateDist::4                   105214     18.53%     94.92% # Number of instructions fetched each cycle (Total)
system.cpu.fetch.rateDist::5                     5198      0.92%     95.83% # Number of instructions fetched each cycle (Total)
system.cpu.fetch.rateDist::6                     2375      0.42%     96.25% # Number of instructions fetched each cycle (Total)
system.cpu.fetch.rateDist::7                     5224      0.92%     97.17% # Number of instructions fetched each cycle (Total)
system.cpu.fetch.rateDist::8                    16058      2.83%    100.00% # Number of instructions fetched each cycle (Total)
system.cpu.fetch.rateDist::overflows                0      0.00%    100.00% # Number of instructions fetched each cycle (Total)
system.cpu.fetch.rateDist::min_value                0                       # Number of instructions fetched each cycle (Total)
system.cpu.fetch.rateDist::max_value                8                       # Number of instructions fetched each cycle (Total)
system.cpu.fetch.rateDist::total               567887                       # Number of instructions fetched each cycle (Total)
system.cpu.idleCycles                           66938                       # Total number of cycles that the CPU has spent unscheduled due to idling
system.cpu.iew.branchMispredicts                 2896                       # Number of branch mispredicts detected at execute
system.cpu.iew.exec_branches                   131859                       # Number of branches executed
system.cpu.iew.exec_nop                          1577                       # number of nop insts executed
system.cpu.iew.exec_rate                     0.909104                       # Inst execution rate
system.cpu.iew.exec_refs                       162195                       # number of memory reference insts executed
system.cpu.iew.exec_stores                     121549                       # Number of stores executed
system.cpu.iew.exec_swp                             0                       # number of swp insts executed
system.cpu.iew.iewBlockCycles                    7262                       # Number of cycles IEW is blocking
system.cpu.iew.iewDispLoadInsts                 41845                       # Number of dispatched load instructions
system.cpu.iew.iewDispNonSpecInsts                212                       # Number of dispatched non-speculative instructions
system.cpu.iew.iewDispSquashedInsts               850                       # Number of squashed instructions skipped by dispatch
system.cpu.iew.iewDispStoreInsts               124469                       # Number of dispatched store instructions
system.cpu.iew.iewDispatchedInsts              596057                       # Number of instructions dispatched to IQ
system.cpu.iew.iewExecLoadInsts                 40646                       # Number of load instructions executed
system.cpu.iew.iewExecSquashedInsts              4450                       # Number of squashed instructions skipped in execute
system.cpu.iew.iewExecutedInsts                577122                       # Number of executed instructions
system.cpu.iew.iewIQFullEvents                      8                       # Number of times the IQ has become full, causing a stall
system.cpu.iew.iewIdleCycles                        0                       # Number of cycles IEW is idle
system.cpu.iew.iewLSQFullEvents                  2190                       # Number of times the LSQ has become full, causing a stall
system.cpu.iew.iewSquashCycles                   2747                       # Number of cycles IEW is squashing
system.cpu.iew.iewUnblockCycles                  2206                       # Number of cycles IEW is unblocking
system.cpu.iew.lsq.thread0.blockedLoads             0                       # Number of blocked loads due to partial load-store forwarding
system.cpu.iew.lsq.thread0.cacheBlocked          6778                       # Number of times an access to memory failed due to the cache being blocked
system.cpu.iew.lsq.thread0.forwLoads             2895                       # Number of loads that had data forwarded from stores
system.cpu.iew.lsq.thread0.ignoredResponses           13                       # Number of memory responses ignored because the instruction is squashed
system.cpu.iew.lsq.thread0.invAddrLoads             0                       # Number of loads ignored due to an invalid address
system.cpu.iew.lsq.thread0.invAddrSwpfs             0                       # Number of software prefetches ignored due to an invalid address
system.cpu.iew.lsq.thread0.memOrderViolation           40                       # Number of memory ordering violations
system.cpu.iew.lsq.thread0.rescheduledLoads         1054                       # Number of loads that were rescheduled
system.cpu.iew.lsq.thread0.squashedLoads         6467                       # Number of loads squashed
system.cpu.iew.lsq.thread0.squashedStores        11153                       # Number of stores squashed
system.cpu.iew.memOrderViolationEvents             40                       # Number of memory order violations
system.cpu.iew.predictedNotTakenIncorrect         1828                       # Number of branches that were predicted not taken incorrectly
system.cpu.iew.predictedTakenIncorrect           1068                       # Number of branches that were predicted taken incorrectly
system.cpu.iew.wb_consumers                    700278                       # num instructions consuming a value
system.cpu.iew.wb_count                        569460                       # cumulative count of insts written-back
system.cpu.iew.wb_fanout                     0.416330                       # average fanout of values written-back
system.cpu.iew.wb_producers                    291547                       # num instructions producing a value
system.cpu.iew.wb_rate                       0.897035                       # insts written-back per cycle
system.cpu.iew.wb_sent                         574781                       # cumulative count of insts sent to commit
system.cpu.int_regfile_reads                   697723                       # number of integer regfile reads
system.cpu.int_regfile_writes                  331972                       # number of integer regfile writes
system.cpu.ipc                               0.787619                       # IPC: Instructions Per Cycle
system.cpu.ipc_total                         0.787619                       # IPC: Total IPC of All Threads
system.cpu.iq.FU_type_0::No_OpClass                 4      0.00%      0.00% # Type of FU issued
system.cpu.iq.FU_type_0::IntAlu                416938     71.69%     71.69% # Type of FU issued
system.cpu.iq.FU_type_0::IntMult                  385      0.07%     71.76% # Type of FU issued
system.cpu.iq.FU_type_0::IntDiv                    96      0.02%     71.77% # Type of FU issued
system.cpu.iq.FU_type_0::FloatAdd                  11      0.00%     71.78% # Type of FU issued
system.cpu.iq.FU_type_0::FloatCmp                   0      0.00%     71.78% # Type of FU issued
system.cpu.iq.FU_type_0::FloatCvt                   0      0.00%     71.78% # Type of FU issued
system.cpu.iq.FU_type_0::FloatMult                  0      0.00%     71.78% # Type of FU issued
system.cpu.iq.FU_type_0::FloatMultAcc               0      0.00%     71.78% # Type of FU issued
system.cpu.iq.FU_type_0::FloatDiv                   0      0.00%     71.78% # Type of FU issued
system.cpu.iq.FU_type_0::FloatMisc                 43      0.01%     71.78% # Type of FU issued
system.cpu.iq.FU_type_0::FloatSqrt                  0      0.00%     71.78% # Type of FU issued
system.cpu.iq.FU_type_0::SimdAdd                   21      0.00%     71.79% # Type of FU issued
system.cpu.iq.FU_type_0::SimdAddAcc                 0      0.00%     71.79% # Type of FU issued
system.cpu.iq.FU_type_0::SimdAlu                   14      0.00%     71.79% # Type of FU issued
system.cpu.iq.FU_type_0::SimdCmp                   16      0.00%     71.79% # Type of FU issued
system.cpu.iq.FU_type_0::SimdCvt                    0      0.00%     71.79% # Type of FU issued
system.cpu.iq.FU_type_0::SimdMisc                  79      0.01%     71.81% # Type of FU issued
system.cpu.iq.FU_type_0::SimdMult                   0      0.00%     71.81% # Type of FU issued
system.cpu.iq.FU_type_0::SimdMultAcc                0      0.00%     71.81% # Type of FU issued
system.cpu.iq.FU_type_0::SimdShift                  0      0.00%     71.81% # Type of FU issued
system.cpu.iq.FU_type_0::SimdShiftAcc               0      0.00%     71.81% # Type of FU issued
system.cpu.iq.FU_type_0::SimdDiv                    0      0.00%     71.81% # Type of FU issued
system.cpu.iq.FU_type_0::SimdSqrt                   0      0.00%     71.81% # Type of FU issued
system.cpu.iq.FU_type_0::SimdFloatAdd               0      0.00%     71.81% # Type of FU issued
system.cpu.iq.FU_type_0::SimdFloatAlu               0      0.00%     71.81% # Type of FU issued
system.cpu.iq.FU_type_0::SimdFloatCmp               0      0.00%     71.81% # Type of FU issued
system.cpu.iq.FU_type_0::SimdFloatCvt               0      0.00%     71.81% # Type of FU issued
system.cpu.iq.FU_type_0::SimdFloatDiv               0      0.00%     71.81% # Type of FU issued
system.cpu.iq.FU_type_0::SimdFloatMisc              0      0.00%     71.81% # Type of FU issued
system.cpu.iq.FU_type_0::SimdFloatMult              0      0.00%     71.81% # Type of FU issued
system.cpu.iq.FU_type_0::SimdFloatMultAcc            0      0.00%     71.81% # Type of FU issued
system.cpu.iq.FU_type_0::SimdFloatSqrt              0      0.00%     71.81% # Type of FU issued
system.cpu.iq.FU_type_0::SimdReduceAdd              0      0.00%     71.81% # Type of FU issued
system.cpu.iq.FU_type_0::SimdReduceAlu              0      0.00%     71.81% # Type of FU issued
system.cpu.iq.FU_type_0::SimdReduceCmp              0      0.00%     71.81% # Type of FU issued
system.cpu.iq.FU_type_0::SimdFloatReduceAdd            0      0.00%     71.81% # Type of FU issued
system.cpu.iq.FU_type_0::SimdFloatReduceCmp            0      0.00%     71.81% # Type of FU issued
system.cpu.iq.FU_type_0::SimdAes                    0      0.00%     71.81% # Type of FU issued
system.cpu.iq.FU_type_0::SimdAesMix                 0      0.00%     71.81% # Type of FU issued
system.cpu.iq.FU_type_0::SimdSha1Hash               0      0.00%     71.81% # Type of FU issued
system.cpu.iq.FU_type_0::SimdSha1Hash2              0      0.00%     71.81% # Type of FU issued
system.cpu.iq.FU_type_0::SimdSha256Hash             0      0.00%     71.81% # Type of FU issued
system.cpu.iq.FU_type_0::SimdSha256Hash2            0      0.00%     71.81% # Type of FU issued
system.cpu.iq.FU_type_0::SimdShaSigma2              0      0.00%     71.81% # Type of FU issued
system.cpu.iq.FU_type_0::SimdShaSigma3              0      0.00%     71.81% # Type of FU issued
system.cpu.iq.FU_type_0::SimdPredAlu                0      0.00%     71.81% # Type of FU issued
system.cpu.iq.FU_type_0::MemRead                41481      7.13%     78.94% # Type of FU issued
system.cpu.iq.FU_type_0::MemWrite              122484     21.06%    100.00% # Type of FU issued
system.cpu.iq.FU_type_0::FloatMemRead               0      0.00%    100.00% # Type of FU issued
system.cpu.iq.FU_type_0::FloatMemWrite              0      0.00%    100.00% # Type of FU issued
system.cpu.iq.FU_type_0::IprAccess                  0      0.00%    100.00% # Type of FU issued
system.cpu.iq.FU_type_0::InstPrefetch               0      0.00%    100.00% # Type of FU issued
system.cpu.iq.FU_type_0::total                 581572                       # Type of FU issued
system.cpu.iq.fp_alu_accesses                       0                       # Number of floating point alu accesses
system.cpu.iq.fp_inst_queue_reads                   0                       # Number of floating instruction queue reads
system.cpu.iq.fp_inst_queue_wakeup_accesses            0                       # Number of floating instruction queue wakeup accesses
system.cpu.iq.fp_inst_queue_writes                  0                       # Number of floating instruction queue writes
system.cpu.iq.fu_busy_cnt                        3746                       # FU busy when requested
system.cpu.iq.fu_busy_rate                   0.006441                       # FU busy rate (busy events/executed inst)
system.cpu.iq.fu_full::No_OpClass                   0      0.00%      0.00% # attempts to use FU when none available
system.cpu.iq.fu_full::IntAlu                    1156     30.86%     30.86% # attempts to use FU when none available
system.cpu.iq.fu_full::IntMult                      1      0.03%     30.89% # attempts to use FU when none available
system.cpu.iq.fu_full::IntDiv                       0      0.00%     30.89% # attempts to use FU when none available
system.cpu.iq.fu_full::FloatAdd                     0      0.00%     30.89% # attempts to use FU when none available
system.cpu.iq.fu_full::FloatCmp                     0      0.00%     30.89% # attempts to use FU when none available
system.cpu.iq.fu_full::FloatCvt                     0      0.00%     30.89% # attempts to use FU when none available
system.cpu.iq.fu_full::FloatMult                    0      0.00%     30.89% # attempts to use FU when none available
system.cpu.iq.fu_full::FloatMultAcc                 0      0.00%     30.89% # attempts to use FU when none available
system.cpu.iq.fu_full::FloatDiv                     0      0.00%     30.89% # attempts to use FU when none available
system.cpu.iq.fu_full::FloatMisc                    0      0.00%     30.89% # attempts to use FU when none available
system.cpu.iq.fu_full::FloatSqrt                    0      0.00%     30.89% # attempts to use FU when none available
system.cpu.iq.fu_full::SimdAdd                      0      0.00%     30.89% # attempts to use FU when none available
system.cpu.iq.fu_full::SimdAddAcc                   0      0.00%     30.89% # attempts to use FU when none available
system.cpu.iq.fu_full::SimdAlu                      1      0.03%     30.91% # attempts to use FU when none available
system.cpu.iq.fu_full::SimdCmp                      2      0.05%     30.97% # attempts to use FU when none available
system.cpu.iq.fu_full::SimdCvt                      0      0.00%     30.97% # attempts to use FU when none available
system.cpu.iq.fu_full::SimdMisc                     0      0.00%     30.97% # attempts to use FU when none available
system.cpu.iq.fu_full::SimdMult                     0      0.00%     30.97% # attempts to use FU when none available
system.cpu.iq.fu_full::SimdMultAcc                  0      0.00%     30.97% # attempts to use FU when none available
system.cpu.iq.fu_full::SimdShift                    0      0.00%     30.97% # attempts to use FU when none available
system.cpu.iq.fu_full::SimdShiftAcc                 0      0.00%     30.97% # attempts to use FU when none available
system.cpu.iq.fu_full::SimdDiv                      0      0.00%     30.97% # attempts to use FU when none available
system.cpu.iq.fu_full::SimdSqrt                     0      0.00%     30.97% # attempts to use FU when none available
system.cpu.iq.fu_full::SimdFloatAdd                 0      0.00%     30.97% # attempts to use FU when none available
system.cpu.iq.fu_full::SimdFloatAlu                 0      0.00%     30.97% # attempts to use FU when none available
system.cpu.iq.fu_full::SimdFloatCmp                 0      0.00%     30.97% # attempts to use FU when none available
system.cpu.iq.fu_full::SimdFloatCvt                 0      0.00%     30.97% # attempts to use FU when none available
system.cpu.iq.fu_full::SimdFloatDiv                 0      0.00%     30.97% # attempts to use FU when none available
system.cpu.iq.fu_full::SimdFloatMisc                0      0.00%     30.97% # attempts to use FU when none available
system.cpu.iq.fu_full::SimdFloatMult                0      0.00%     30.97% # attempts to use FU when none available
system.cpu.iq.fu_full::SimdFloatMultAcc             0      0.00%     30.97% # attempts to use FU when none available
system.cpu.iq.fu_full::SimdFloatSqrt                0      0.00%     30.97% # attempts to use FU when none available
system.cpu.iq.fu_full::SimdReduceAdd                0      0.00%     30.97% # attempts to use FU when none available
system.cpu.iq.fu_full::SimdReduceAlu                0      0.00%     30.97% # attempts to use FU when none available
system.cpu.iq.fu_full::SimdReduceCmp                0      0.00%     30.97% # attempts to use FU when none available
system.cpu.iq.fu_full::SimdFloatReduceAdd            0      0.00%     30.97% # attempts to use FU when none available
system.cpu.iq.fu_full::SimdFloatReduceCmp            0      0.00%     30.97% # attempts to use FU when none available
system.cpu.iq.fu_full::SimdAes                      0      0.00%     30.97% # attempts to use FU when none available
system.cpu.iq.fu_full::SimdAesMix                   0      0.00%     30.97% # attempts to use FU when none available
system.cpu.iq.fu_full::SimdSha1Hash                 0      0.00%     30.97% # attempts to use FU when none available
system.cpu.iq.fu_full::SimdSha1Hash2                0      0.00%     30.97% # attempts to use FU when none available
system.cpu.iq.fu_full::SimdSha256Hash               0      0.00%     30.97% # attempts to use FU when none available
system.cpu.iq.fu_full::SimdSha256Hash2              0      0.00%     30.97% # attempts to use FU when none available
system.cpu.iq.fu_full::SimdShaSigma2                0      0.00%     30.97% # attempts to use FU when none available
system.cpu.iq.fu_full::SimdShaSigma3                0      0.00%     30.97% # attempts to use FU when none available
system.cpu.iq.fu_full::SimdPredAlu                  0      0.00%     30.97% # attempts to use FU when none available
system.cpu.iq.fu_full::MemRead                   1706     45.54%     76.51% # attempts to use FU when none available
system.cpu.iq.fu_full::MemWrite                   880     23.49%    100.00% # attempts to use FU when none available
system.cpu.iq.fu_full::FloatMemRead                 0      0.00%    100.00% # attempts to use FU when none available
system.cpu.iq.fu_full::FloatMemWrite                0      0.00%    100.00% # attempts to use FU when none available
system.cpu.iq.fu_full::IprAccess                    0      0.00%    100.00% # attempts to use FU when none available
system.cpu.iq.fu_full::InstPrefetch                 0      0.00%    100.00% # attempts to use FU when none available
system.cpu.iq.int_alu_accesses                 582917                       # Number of integer alu accesses
system.cpu.iq.int_inst_queue_reads            1730378                       # Number of integer instruction queue reads
system.cpu.iq.int_inst_queue_wakeup_accesses       567290                       # Number of integer instruction queue wakeup accesses
system.cpu.iq.int_inst_queue_writes            659309                       # Number of integer instruction queue writes
system.cpu.iq.iqInstsAdded                     594268                       # Number of instructions added to the IQ (excludes non-spec)
system.cpu.iq.iqInstsIssued                    581572                       # Number of instructions issued
system.cpu.iq.iqNonSpecInstsAdded                 212                       # Number of non-speculative instructions added to the IQ
system.cpu.iq.iqSquashedInstsExamined           67312                       # Number of squashed instructions iterated over during squash; mainly for profiling
system.cpu.iq.iqSquashedInstsIssued               265                       # Number of squashed instructions issued
system.cpu.iq.iqSquashedNonSpecRemoved             38                       # Number of squashed non-spec instructions that were removed
system.cpu.iq.iqSquashedOperandsExamined        40667                       # Number of squashed operands that are examined and possibly removed from graph
system.cpu.iq.issued_per_cycle::samples        567887                       # Number of insts issued each cycle
system.cpu.iq.issued_per_cycle::mean         1.024098                       # Number of insts issued each cycle
system.cpu.iq.issued_per_cycle::stdev        1.681716                       # Number of insts issued each cycle
system.cpu.iq.issued_per_cycle::underflows            0      0.00%      0.00% # Number of insts issued each cycle
system.cpu.iq.issued_per_cycle::0              381520     67.18%     67.18% # Number of insts issued each cycle
system.cpu.iq.issued_per_cycle::1               31797      5.60%     72.78% # Number of insts issued each cycle
system.cpu.iq.issued_per_cycle::2               31396      5.53%     78.31% # Number of insts issued each cycle
system.cpu.iq.issued_per_cycle::3               39374      6.93%     85.24% # Number of insts issued each cycle
system.cpu.iq.issued_per_cycle::4               65781     11.58%     96.83% # Number of insts issued each cycle
system.cpu.iq.issued_per_cycle::5                8177      1.44%     98.27% # Number of insts issued each cycle
system.cpu.iq.issued_per_cycle::6                5684      1.00%     99.27% # Number of insts issued each cycle
system.cpu.iq.issued_per_cycle::7                2516      0.44%     99.71% # Number of insts issued each cycle
system.cpu.iq.issued_per_cycle::8                1642      0.29%    100.00% # Number of insts issued each cycle
system.cpu.iq.issued_per_cycle::overflows            0      0.00%    100.00% # Number of insts issued each cycle
system.cpu.iq.issued_per_cycle::min_value            0                       # Number of insts issued each cycle
system.cpu.iq.issued_per_cycle::max_value            8                       # Number of insts issued each cycle
system.cpu.iq.issued_per_cycle::total          567887                       # Number of insts issued each cycle
system.cpu.iq.rate                           0.916114                       # Inst issue rate
system.cpu.iq.vec_alu_accesses                   2397                       # Number of vector alu accesses
system.cpu.iq.vec_inst_queue_reads               4664                       # Number of vector instruction queue reads
system.cpu.iq.vec_inst_queue_wakeup_accesses         2170                       # Number of vector instruction queue wakeup accesses
system.cpu.iq.vec_inst_queue_writes              2523                       # Number of vector instruction queue writes
system.cpu.itb.accesses                             0                       # DTB accesses
system.cpu.itb.align_faults                         0                       # Number of TLB faults due to alignment restrictions
system.cpu.itb.domain_faults                        0                       # Number of TLB faults due to domain restrictions
system.cpu.itb.flush_entries                        0                       # Number of entries that have been flushed from TLB
system.cpu.itb.flush_tlb                            0                       # Number of times complete TLB was flushed
system.cpu.itb.flush_tlb_asid                       0                       # Number of times TLB was flushed by ASID
system.cpu.itb.flush_tlb_mva                        0                       # Number of times TLB was flushed by MVA
system.cpu.itb.flush_tlb_mva_asid                   0                       # Number of times TLB was flushed by MVA & ASID
system.cpu.itb.hits                                 0                       # DTB hits
system.cpu.itb.inst_accesses                        0                       # ITB inst accesses
system.cpu.itb.inst_hits                            0                       # ITB inst hits
system.cpu.itb.inst_misses                          0                       # ITB inst misses
system.cpu.itb.misses                               0                       # DTB misses
system.cpu.itb.perms_faults                         0                       # Number of TLB faults due to permissions restrictions
system.cpu.itb.prefetch_faults                      0                       # Number of TLB faults due to prefetch
system.cpu.itb.read_accesses                        0                       # DTB read accesses
system.cpu.itb.read_hits                            0                       # DTB read hits
system.cpu.itb.read_misses                          0                       # DTB read misses
system.cpu.itb.stage2_mmu.stage2_tlb.accesses            0                       # DTB accesses
system.cpu.itb.stage2_mmu.stage2_tlb.align_faults            0                       # Number of TLB faults due to alignment restrictions
system.cpu.itb.stage2_mmu.stage2_tlb.domain_faults            0                       # Number of TLB faults due to domain restrictions
system.cpu.itb.stage2_mmu.stage2_tlb.flush_entries            0                       # Number of entries that have been flushed from TLB
system.cpu.itb.stage2_mmu.stage2_tlb.flush_tlb            0                       # Number of times complete TLB was flushed
system.cpu.itb.stage2_mmu.stage2_tlb.flush_tlb_asid            0                       # Number of times TLB was flushed by ASID
system.cpu.itb.stage2_mmu.stage2_tlb.flush_tlb_mva            0                       # Number of times TLB was flushed by MVA
system.cpu.itb.stage2_mmu.stage2_tlb.flush_tlb_mva_asid            0                       # Number of times TLB was flushed by MVA & ASID
system.cpu.itb.stage2_mmu.stage2_tlb.hits            0                       # DTB hits
system.cpu.itb.stage2_mmu.stage2_tlb.inst_accesses            0                       # ITB inst accesses
system.cpu.itb.stage2_mmu.stage2_tlb.inst_hits            0                       # ITB inst hits
system.cpu.itb.stage2_mmu.stage2_tlb.inst_misses            0                       # ITB inst misses
system.cpu.itb.stage2_mmu.stage2_tlb.misses            0                       # DTB misses
system.cpu.itb.stage2_mmu.stage2_tlb.perms_faults            0                       # Number of TLB faults due to permissions restrictions
system.cpu.itb.stage2_mmu.stage2_tlb.prefetch_faults            0                       # Number of TLB faults due to prefetch
system.cpu.itb.stage2_mmu.stage2_tlb.read_accesses            0                       # DTB read accesses
system.cpu.itb.stage2_mmu.stage2_tlb.read_hits            0                       # DTB read hits
system.cpu.itb.stage2_mmu.stage2_tlb.read_misses            0                       # DTB read misses
system.cpu.itb.stage2_mmu.stage2_tlb.walker.walkRequestOrigin_Requested::Data            0                       # Table walker requests started/completed, data/inst
system.cpu.itb.stage2_mmu.stage2_tlb.walker.walkRequestOrigin_Requested::Inst            0                       # Table walker requests started/completed, data/inst
system.cpu.itb.stage2_mmu.stage2_tlb.walker.walkRequestOrigin_Requested::total            0                       # Table walker requests started/completed, data/inst
system.cpu.itb.stage2_mmu.stage2_tlb.walker.walkRequestOrigin_Completed::Data            0                       # Table walker requests started/completed, data/inst
system.cpu.itb.stage2_mmu.stage2_tlb.walker.walkRequestOrigin_Completed::Inst            0                       # Table walker requests started/completed, data/inst
system.cpu.itb.stage2_mmu.stage2_tlb.walker.walkRequestOrigin_Completed::total            0                       # Table walker requests started/completed, data/inst
system.cpu.itb.stage2_mmu.stage2_tlb.walker.walkRequestOrigin::total            0                       # Table walker requests started/completed, data/inst
system.cpu.itb.stage2_mmu.stage2_tlb.walker.walks            0                       # Table walker walks requested
system.cpu.itb.stage2_mmu.stage2_tlb.write_accesses            0                       # DTB write accesses
system.cpu.itb.stage2_mmu.stage2_tlb.write_hits            0                       # DTB write hits
system.cpu.itb.stage2_mmu.stage2_tlb.write_misses            0                       # DTB write misses
system.cpu.itb.walker.walkRequestOrigin_Requested::Data            0                       # Table walker requests started/completed, data/inst
system.cpu.itb.walker.walkRequestOrigin_Requested::Inst            0                       # Table walker requests started/completed, data/inst
system.cpu.itb.walker.walkRequestOrigin_Requested::total            0                       # Table walker requests started/completed, data/inst
system.cpu.itb.walker.walkRequestOrigin_Completed::Data            0                       # Table walker requests started/completed, data/inst
system.cpu.itb.walker.walkRequestOrigin_Completed::Inst            0                       # Table walker requests started/completed, data/inst
system.cpu.itb.walker.walkRequestOrigin_Completed::total            0                       # Table walker requests started/completed, data/inst
system.cpu.itb.walker.walkRequestOrigin::total            0                       # Table walker requests started/completed, data/inst
system.cpu.itb.walker.walks                         0                       # Table walker walks requested
system.cpu.itb.write_accesses                       0                       # DTB write accesses
system.cpu.itb.write_hits                           0                       # DTB write hits
system.cpu.itb.write_misses                         0                       # DTB write misses
system.cpu.memDep0.conflictingLoads              2154                       # Number of conflicting loads.
system.cpu.memDep0.conflictingStores             1322                       # Number of conflicting stores.
system.cpu.memDep0.insertedLoads                41845                       # Number of loads inserted to the mem dependence unit.
system.cpu.memDep0.insertedStores              124469                       # Number of stores inserted to the mem dependence unit.
system.cpu.misc_regfile_reads                  439317                       # number of misc regfile reads
system.cpu.misc_regfile_writes                    561                       # number of misc regfile writes
system.cpu.numCycles                           634825                       # number of cpu cycles simulated
system.cpu.numWorkItemsCompleted                    0                       # number of work items this cpu completed
system.cpu.numWorkItemsStarted                      0                       # number of work items this cpu started
system.cpu.rename.BlockCycles                    9836                       # Number of cycles rename is blocking
system.cpu.rename.CommittedMaps                613494                       # Number of HB maps that are committed
system.cpu.rename.IQFullEvents                     76                       # Number of times rename has blocked due to IQ full
system.cpu.rename.IdleCycles                    77389                       # Number of cycles rename is idle
system.cpu.rename.LQFullEvents                   1532                       # Number of times rename has blocked due to LQ full
system.cpu.rename.ROBFullEvents                    15                       # Number of times rename has blocked due to ROB full
system.cpu.rename.RenameLookups               1098043                       # Number of register rename lookups that rename has made
system.cpu.rename.RenamedInsts                 608830                       # Number of instructions processed by rename
system.cpu.rename.RenamedOperands              707058                       # Number of destination operands rename has renamed
system.cpu.rename.RunCycles                     83342                       # Number of cycles rename is running
system.cpu.rename.SQFullEvents                 370647                       # Number of times rename has blocked due to SQ full
system.cpu.rename.SquashCycles                   2747                       # Number of cycles rename is squashing
system.cpu.rename.UnblockCycles                373771                       # Number of cycles rename is unblocking
system.cpu.rename.UndoneMaps                    93559                       # Number of HB maps that are undone due to squashing
system.cpu.rename.int_rename_lookups           732430                       # Number of integer rename lookups
system.cpu.rename.serializeStallCycles          20802                       # count of cycles rename stalled for serializing inst
system.cpu.rename.serializingInsts                866                       # count of serializing insts renamed
system.cpu.rename.skidInsts                    171274                       # count of insts added to the skid buffer
system.cpu.rename.tempSerializingInsts            212                       # count of temporary serializing insts renamed
system.cpu.rename.vec_rename_lookups             2276                       # Number of vector rename lookups
system.cpu.rob.rob_reads                      1136332                       # The number of ROB reads
system.cpu.rob.rob_writes                     1191338                       # The number of ROB writes
system.cpu.timesIdled                             955                       # Number of times that the entire CPU went into an idle state and unscheduled itself
system.cpu.vec_regfile_reads                     2115                       # number of vector regfile reads
system.cpu.vec_regfile_writes                     186                       # number of vector regfile writes
system.cpu.workload.numSyscalls                    35                       # Number of system calls
system.membus.snoop_filter.hit_multi_requests            0                       # Number of requests hitting in the snoop filter with multiple (>1) holders of the requested data.
system.membus.snoop_filter.hit_multi_snoops            0                       # Number of snoops hitting in the snoop filter with multiple (>1) holders of the requested data.
system.membus.snoop_filter.hit_single_requests            0                       # Number of requests hitting in the snoop filter with a single holder of the requested data.
system.membus.snoop_filter.hit_single_snoops            0                       # Number of snoops hitting in the snoop filter with a single holder of the requested data.
system.membus.snoop_filter.tot_requests         12000                       # Total number of requests made to the snoop filter.
system.membus.snoop_filter.tot_snoops               0                       # Total number of snoops made to the snoop filter.
system.tol2bus.snoop_filter.hit_multi_requests            4                       # Number of requests hitting in the snoop filter with multiple (>1) holders of the requested data.
system.tol2bus.snoop_filter.hit_multi_snoops            0                       # Number of snoops hitting in the snoop filter with multiple (>1) holders of the requested data.
system.tol2bus.snoop_filter.hit_single_requests        11832                       # Number of requests hitting in the snoop filter with a single holder of the requested data.
system.tol2bus.snoop_filter.hit_single_snoops            0                       # Number of snoops hitting in the snoop filter with a single holder of the requested data.
system.tol2bus.snoop_filter.tot_requests        24643                       # Total number of requests made to the snoop filter.
system.tol2bus.snoop_filter.tot_snoops              0                       # Total number of snoops made to the snoop filter.
system.membus.trans_dist::ReadResp                981                       # Transaction distribution
system.membus.trans_dist::ReadExReq             10938                       # Transaction distribution
system.membus.trans_dist::ReadExResp            10935                       # Transaction distribution
system.membus.trans_dist::ReadSharedReq           981                       # Transaction distribution
system.membus.trans_dist::InvalidateReq            81                       # Transaction distribution
system.membus.pkt_count_system.l2.mem_side::system.mem_ctrls.port        23916                       # Packet count per connected master and slave (bytes)
system.membus.pkt_count::total                  23916                       # Packet count per connected master and slave (bytes)
system.membus.pkt_size_system.l2.mem_side::system.mem_ctrls.port       762624                       # Cumulative packet size per connected master and slave (bytes)
system.membus.pkt_size::total                  762624                       # Cumulative packet size per connected master and slave (bytes)
system.membus.snoops                                0                       # Total snoops (count)
system.membus.snoopTraffic                          0                       # Total snoop traffic (bytes)
system.membus.snoop_fanout::samples             12000                       # Request fanout histogram
system.membus.snoop_fanout::mean                    0                       # Request fanout histogram
system.membus.snoop_fanout::stdev                   0                       # Request fanout histogram
system.membus.snoop_fanout::underflows              0      0.00%      0.00% # Request fanout histogram
system.membus.snoop_fanout::0                   12000    100.00%    100.00% # Request fanout histogram
system.membus.snoop_fanout::1                       0      0.00%    100.00% # Request fanout histogram
system.membus.snoop_fanout::overflows               0      0.00%    100.00% # Request fanout histogram
system.membus.snoop_fanout::min_value               0                       # Request fanout histogram
system.membus.snoop_fanout::max_value               0                       # Request fanout histogram
system.membus.snoop_fanout::total               12000                       # Request fanout histogram
system.membus.reqLayer0.occupancy            16764000                       # Layer occupancy (ticks)
system.membus.reqLayer0.utilization               5.3                       # Layer utilization (%)
system.membus.respLayer1.occupancy           62040250                       # Layer occupancy (ticks)
system.membus.respLayer1.utilization             19.5                       # Layer utilization (%)
system.membus.power_state.pwrStateResidencyTicks::UNDEFINED    317412000                       # Cumulative time (in ticks) in various power states
system.tol2bus.trans_dist::ReadResp              1786                       # Transaction distribution
system.tol2bus.trans_dist::WritebackDirty        10600                       # Transaction distribution
system.tol2bus.trans_dist::WritebackClean         1033                       # Transaction distribution
system.tol2bus.trans_dist::CleanEvict             199                       # Transaction distribution
system.tol2bus.trans_dist::ReadExReq            10944                       # Transaction distribution
system.tol2bus.trans_dist::ReadExResp           10940                       # Transaction distribution
system.tol2bus.trans_dist::ReadCleanReq          1496                       # Transaction distribution
system.tol2bus.trans_dist::ReadSharedReq          290                       # Transaction distribution
system.tol2bus.trans_dist::InvalidateReq           81                       # Transaction distribution
system.tol2bus.trans_dist::InvalidateResp           81                       # Transaction distribution
system.tol2bus.pkt_count_system.cpu.icache.mem_side::system.l2.cpu_side         4025                       # Packet count per connected master and slave (bytes)
system.tol2bus.pkt_count_system.cpu.dcache.mem_side::system.l2.cpu_side        33425                       # Packet count per connected master and slave (bytes)
system.tol2bus.pkt_count::total                 37450                       # Packet count per connected master and slave (bytes)
system.tol2bus.pkt_size_system.cpu.icache.mem_side::system.l2.cpu_side       161856                       # Cumulative packet size per connected master and slave (bytes)
system.tol2bus.pkt_size_system.cpu.dcache.mem_side::system.l2.cpu_side      1397120                       # Cumulative packet size per connected master and slave (bytes)
system.tol2bus.pkt_size::total                1558976                       # Cumulative packet size per connected master and slave (bytes)
system.tol2bus.snoops                               0                       # Total snoops (count)
system.tol2bus.snoopTraffic                         0                       # Total snoop traffic (bytes)
system.tol2bus.snoop_fanout::samples            12811                       # Request fanout histogram
system.tol2bus.snoop_fanout::mean            0.000312                       # Request fanout histogram
system.tol2bus.snoop_fanout::stdev           0.017668                       # Request fanout histogram
system.tol2bus.snoop_fanout::underflows             0      0.00%      0.00% # Request fanout histogram
system.tol2bus.snoop_fanout::0                  12807     99.97%     99.97% # Request fanout histogram
system.tol2bus.snoop_fanout::1                      4      0.03%    100.00% # Request fanout histogram
system.tol2bus.snoop_fanout::2                      0      0.00%    100.00% # Request fanout histogram
system.tol2bus.snoop_fanout::overflows              0      0.00%    100.00% # Request fanout histogram
system.tol2bus.snoop_fanout::min_value              0                       # Request fanout histogram
system.tol2bus.snoop_fanout::max_value              1                       # Request fanout histogram
system.tol2bus.snoop_fanout::total              12811                       # Request fanout histogram
system.tol2bus.reqLayer0.occupancy           23954500                       # Layer occupancy (ticks)
system.tol2bus.reqLayer0.utilization              7.5                       # Layer utilization (%)
system.tol2bus.respLayer1.occupancy          16885500                       # Layer occupancy (ticks)
system.tol2bus.respLayer1.utilization             5.3                       # Layer utilization (%)
system.tol2bus.respLayer0.occupancy           2244000                       # Layer occupancy (ticks)
system.tol2bus.respLayer0.utilization             0.7                       # Layer utilization (%)
system.tol2bus.power_state.pwrStateResidencyTicks::UNDEFINED    317412000                       # Cumulative time (in ticks) in various power states
system.voltage_domain.voltage                       1                       # Voltage in Volts
system.clk_domain.clock                          1000                       # Clock period in ticks
system.l2.demand_hits::.cpu.inst                  663                       # number of demand (read+write) hits
system.l2.demand_hits::.cpu.data                  147                       # number of demand (read+write) hits
system.l2.demand_hits::total                      810                       # number of demand (read+write) hits
system.l2.overall_hits::.cpu.inst                 663                       # number of overall hits
system.l2.overall_hits::.cpu.data                 147                       # number of overall hits
system.l2.overall_hits::total                     810                       # number of overall hits
system.l2.demand_misses::.cpu.inst                833                       # number of demand (read+write) misses
system.l2.demand_misses::.cpu.data              11087                       # number of demand (read+write) misses
system.l2.demand_misses::total                  11920                       # number of demand (read+write) misses
system.l2.overall_misses::.cpu.inst               833                       # number of overall misses
system.l2.overall_misses::.cpu.data             11087                       # number of overall misses
system.l2.overall_misses::total                 11920                       # number of overall misses
system.l2.demand_miss_latency::.cpu.inst     65230000                       # number of demand (read+write) miss cycles
system.l2.demand_miss_latency::.cpu.data    833348000                       # number of demand (read+write) miss cycles
system.l2.demand_miss_latency::total        898578000                       # number of demand (read+write) miss cycles
system.l2.overall_miss_latency::.cpu.inst     65230000                       # number of overall miss cycles
system.l2.overall_miss_latency::.cpu.data    833348000                       # number of overall miss cycles
system.l2.overall_miss_latency::total       898578000                       # number of overall miss cycles
system.l2.demand_accesses::.cpu.inst             1496                       # number of demand (read+write) accesses
system.l2.demand_accesses::.cpu.data            11234                       # number of demand (read+write) accesses
system.l2.demand_accesses::total                12730                       # number of demand (read+write) accesses
system.l2.overall_accesses::.cpu.inst            1496                       # number of overall (read+write) accesses
system.l2.overall_accesses::.cpu.data           11234                       # number of overall (read+write) accesses
system.l2.overall_accesses::total               12730                       # number of overall (read+write) accesses
system.l2.demand_miss_rate::.cpu.inst        0.556818                       # miss rate for demand accesses
system.l2.demand_miss_rate::.cpu.data        0.986915                       # miss rate for demand accesses
system.l2.demand_miss_rate::total            0.936371                       # miss rate for demand accesses
system.l2.overall_miss_rate::.cpu.inst       0.556818                       # miss rate for overall accesses
system.l2.overall_miss_rate::.cpu.data       0.986915                       # miss rate for overall accesses
[...]
system.cpu.dcache.overall_miss_latency::total   5461319737                       # number of overall miss cycles
system.cpu.dcache.demand_accesses::.cpu.data       149428                       # number of demand (read+write) accesses
system.cpu.dcache.demand_accesses::total       149428                       # number of demand (read+write) accesses
system.cpu.dcache.overall_accesses::.cpu.data       149572                       # number of overall (read+write) accesses
system.cpu.dcache.overall_accesses::total       149572                       # number of overall (read+write) accesses
system.cpu.dcache.demand_miss_rate::.cpu.data     0.585995                       # miss rate for demand accesses
system.cpu.dcache.demand_miss_rate::total     0.585995                       # miss rate for demand accesses
system.cpu.dcache.overall_miss_rate::.cpu.data     0.585484                       # miss rate for overall accesses
system.cpu.dcache.overall_miss_rate::total     0.585484                       # miss rate for overall accesses
system.cpu.dcache.demand_avg_miss_latency::.cpu.data 62369.463901                       # average overall miss latency
system.cpu.dcache.demand_avg_miss_latency::total 62369.463901                       # average overall miss latency
system.cpu.dcache.overall_avg_miss_latency::.cpu.data 62363.766238                       # average overall miss latency
system.cpu.dcache.overall_avg_miss_latency::total 62363.766238                       # average overall miss latency
system.cpu.dcache.blocked_cycles::no_mshrs       367671                       # number of cycles access was blocked
system.cpu.dcache.blocked_cycles::no_targets            0                       # number of cycles access was blocked
system.cpu.dcache.blocked::no_mshrs              9638                       # number of cycles access was blocked
system.cpu.dcache.blocked::no_targets               0                       # number of cycles access was blocked
system.cpu.dcache.avg_blocked_cycles::no_mshrs    38.148060                       # average number of cycles each access was blocked
system.cpu.dcache.avg_blocked_cycles::no_targets          nan                       # average number of cycles each access was blocked
system.cpu.dcache.writebacks::.writebacks        10600                       # number of writebacks
system.cpu.dcache.writebacks::total             10600                       # number of writebacks
system.cpu.dcache.demand_mshr_hits::.cpu.data        76258                       # number of demand (read+write) MSHR hits
system.cpu.dcache.demand_mshr_hits::total        76258                       # number of demand (read+write) MSHR hits
system.cpu.dcache.overall_mshr_hits::.cpu.data        76258                       # number of overall MSHR hits
system.cpu.dcache.overall_mshr_hits::total        76258                       # number of overall MSHR hits
system.cpu.dcache.demand_mshr_misses::.cpu.data        11306                       # number of demand (read+write) MSHR misses
system.cpu.dcache.demand_mshr_misses::total        11306                       # number of demand (read+write) MSHR misses
system.cpu.dcache.overall_mshr_misses::.cpu.data        11314                       # number of overall MSHR misses
system.cpu.dcache.overall_mshr_misses::total        11314                       # number of overall MSHR misses
system.cpu.dcache.demand_mshr_miss_latency::.cpu.data    856469468                       # number of demand (read+write) MSHR miss cycles
system.cpu.dcache.demand_mshr_miss_latency::total    856469468                       # number of demand (read+write) MSHR miss cycles
system.cpu.dcache.overall_mshr_miss_latency::.cpu.data    857084468                       # number of overall MSHR miss cycles
system.cpu.dcache.overall_mshr_miss_latency::total    857084468                       # number of overall MSHR miss cycles
system.cpu.dcache.demand_mshr_miss_rate::.cpu.data     0.075662                       # mshr miss rate for demand accesses
system.cpu.dcache.demand_mshr_miss_rate::total     0.075662                       # mshr miss rate for demand accesses
system.cpu.dcache.overall_mshr_miss_rate::.cpu.data     0.075642                       # mshr miss rate for overall accesses
system.cpu.dcache.overall_mshr_miss_rate::total     0.075642                       # mshr miss rate for overall accesses
system.cpu.dcache.demand_avg_mshr_miss_latency::.cpu.data 75753.535114                       # average overall mshr miss latency
system.cpu.dcache.demand_avg_mshr_miss_latency::total 75753.535114                       # average overall mshr miss latency
system.cpu.dcache.overall_avg_mshr_miss_latency::.cpu.data 75754.328089                       # average overall mshr miss latency
system.cpu.dcache.overall_avg_mshr_miss_latency::total 75754.328089                       # average overall mshr miss latency
system.cpu.dcache.replacements                  10799                       # number of replacements
system.cpu.dcache.ReadReq_hits::.cpu.data        35615                       # number of ReadReq hits
system.cpu.dcache.ReadReq_hits::total           35615                       # number of ReadReq hits
system.cpu.dcache.ReadReq_misses::.cpu.data          628                       # number of ReadReq misses
system.cpu.dcache.ReadReq_misses::total           628                       # number of ReadReq misses
system.cpu.dcache.ReadReq_miss_latency::.cpu.data     31112000                       # number of ReadReq miss cycles
system.cpu.dcache.ReadReq_miss_latency::total     31112000                       # number of ReadReq miss cycles
system.cpu.dcache.ReadReq_accesses::.cpu.data        36243                       # number of ReadReq accesses(hits+misses)
system.cpu.dcache.ReadReq_accesses::total        36243                       # number of ReadReq accesses(hits+misses)
system.cpu.dcache.ReadReq_miss_rate::.cpu.data     0.017327                       # miss rate for ReadReq accesses
system.cpu.dcache.ReadReq_miss_rate::total     0.017327                       # miss rate for ReadReq accesses
system.cpu.dcache.ReadReq_avg_miss_latency::.cpu.data 49541.401274                       # average ReadReq miss latency
system.cpu.dcache.ReadReq_avg_miss_latency::total 49541.401274                       # average ReadReq miss latency
system.cpu.dcache.ReadReq_mshr_hits::.cpu.data          347                       # number of ReadReq MSHR hits
system.cpu.dcache.ReadReq_mshr_hits::total          347                       # number of ReadReq MSHR hits
system.cpu.dcache.ReadReq_mshr_misses::.cpu.data          281                       # number of ReadReq MSHR misses
system.cpu.dcache.ReadReq_mshr_misses::total          281                       # number of ReadReq MSHR misses
system.cpu.dcache.ReadReq_mshr_miss_latency::.cpu.data     13819500                       # number of ReadReq MSHR miss cycles
system.cpu.dcache.ReadReq_mshr_miss_latency::total     13819500                       # number of ReadReq MSHR miss cycles
system.cpu.dcache.ReadReq_mshr_miss_rate::.cpu.data     0.007753                       # mshr miss rate for ReadReq accesses
system.cpu.dcache.ReadReq_mshr_miss_rate::total     0.007753                       # mshr miss rate for ReadReq accesses
system.cpu.dcache.ReadReq_avg_mshr_miss_latency::.cpu.data 49179.715302                       # average ReadReq mshr miss latency
system.cpu.dcache.ReadReq_avg_mshr_miss_latency::total 49179.715302                       # average ReadReq mshr miss latency
system.cpu.dcache.WriteReq_hits::.cpu.data        26205                       # number of WriteReq hits
system.cpu.dcache.WriteReq_hits::total          26205                       # number of WriteReq hits
system.cpu.dcache.WriteReq_misses::.cpu.data        86878                       # number of WriteReq misses
system.cpu.dcache.WriteReq_misses::total        86878                       # number of WriteReq misses
system.cpu.dcache.WriteReq_miss_latency::.cpu.data   5428367764                       # number of WriteReq miss cycles
system.cpu.dcache.WriteReq_miss_latency::total   5428367764                       # number of WriteReq miss cycles
system.cpu.dcache.WriteReq_accesses::.cpu.data       113083                       # number of WriteReq accesses(hits+misses)
system.cpu.dcache.WriteReq_accesses::total       113083                       # number of WriteReq accesses(hits+misses)
system.cpu.dcache.WriteReq_miss_rate::.cpu.data     0.768268                       # miss rate for WriteReq accesses
system.cpu.dcache.WriteReq_miss_rate::total     0.768268                       # miss rate for WriteReq accesses
system.cpu.dcache.WriteReq_avg_miss_latency::.cpu.data 62482.651120                       # average WriteReq miss latency
system.cpu.dcache.WriteReq_avg_miss_latency::total 62482.651120                       # average WriteReq miss latency
system.cpu.dcache.WriteReq_mshr_hits::.cpu.data        75911                       # number of WriteReq MSHR hits
system.cpu.dcache.WriteReq_mshr_hits::total        75911                       # number of WriteReq MSHR hits
system.cpu.dcache.WriteReq_mshr_misses::.cpu.data        10967                       # number of WriteReq MSHR misses
system.cpu.dcache.WriteReq_mshr_misses::total        10967                       # number of WriteReq MSHR misses
system.cpu.dcache.WriteReq_mshr_miss_latency::.cpu.data    840867995                       # number of WriteReq MSHR miss cycles
system.cpu.dcache.WriteReq_mshr_miss_latency::total    840867995                       # number of WriteReq MSHR miss cycles
system.cpu.dcache.WriteReq_mshr_miss_rate::.cpu.data     0.096982                       # mshr miss rate for WriteReq accesses
system.cpu.dcache.WriteReq_mshr_miss_rate::total     0.096982                       # mshr miss rate for WriteReq accesses
system.cpu.dcache.WriteReq_avg_mshr_miss_latency::.cpu.data 76672.562688                       # average WriteReq mshr miss latency
system.cpu.dcache.WriteReq_avg_mshr_miss_latency::total 76672.562688                       # average WriteReq mshr miss latency
system.cpu.dcache.SoftPFReq_hits::.cpu.data          136                       # number of SoftPFReq hits
system.cpu.dcache.SoftPFReq_hits::total           136                       # number of SoftPFReq hits
system.cpu.dcache.SoftPFReq_misses::.cpu.data            8                       # number of SoftPFReq misses
system.cpu.dcache.SoftPFReq_misses::total            8                       # number of SoftPFReq misses
system.cpu.dcache.SoftPFReq_accesses::.cpu.data          144                       # number of SoftPFReq accesses(hits+misses)
system.cpu.dcache.SoftPFReq_accesses::total          144                       # number of SoftPFReq accesses(hits+misses)
system.cpu.dcache.SoftPFReq_miss_rate::.cpu.data     0.055556                       # miss rate for SoftPFReq accesses
system.cpu.dcache.SoftPFReq_miss_rate::total     0.055556                       # miss rate for SoftPFReq accesses
system.cpu.dcache.SoftPFReq_mshr_misses::.cpu.data            8                       # number of SoftPFReq MSHR misses
system.cpu.dcache.SoftPFReq_mshr_misses::total            8                       # number of SoftPFReq MSHR misses
system.cpu.dcache.SoftPFReq_mshr_miss_latency::.cpu.data       615000                       # number of SoftPFReq MSHR miss cycles
system.cpu.dcache.SoftPFReq_mshr_miss_latency::total       615000                       # number of SoftPFReq MSHR miss cycles
system.cpu.dcache.SoftPFReq_mshr_miss_rate::.cpu.data     0.055556                       # mshr miss rate for SoftPFReq accesses
system.cpu.dcache.SoftPFReq_mshr_miss_rate::total     0.055556                       # mshr miss rate for SoftPFReq accesses
system.cpu.dcache.SoftPFReq_avg_mshr_miss_latency::.cpu.data        76875                       # average SoftPFReq mshr miss latency
system.cpu.dcache.SoftPFReq_avg_mshr_miss_latency::total        76875                       # average SoftPFReq mshr miss latency
system.cpu.dcache.WriteLineReq_hits::.cpu.data           44                       # number of WriteLineReq hits
system.cpu.dcache.WriteLineReq_hits::total           44                       # number of WriteLineReq hits
system.cpu.dcache.WriteLineReq_misses::.cpu.data           58                       # number of WriteLineReq misses
system.cpu.dcache.WriteLineReq_misses::total           58                       # number of WriteLineReq misses
system.cpu.dcache.WriteLineReq_miss_latency::.cpu.data      1839973                       # number of WriteLineReq miss cycles
system.cpu.dcache.WriteLineReq_miss_latency::total      1839973                       # number of WriteLineReq miss cycles
system.cpu.dcache.WriteLineReq_accesses::.cpu.data          102                       # number of WriteLineReq accesses(hits+misses)
system.cpu.dcache.WriteLineReq_accesses::total          102                       # number of WriteLineReq accesses(hits+misses)
system.cpu.dcache.WriteLineReq_miss_rate::.cpu.data     0.568627                       # miss rate for WriteLineReq accesses
system.cpu.dcache.WriteLineReq_miss_rate::total     0.568627                       # miss rate for WriteLineReq accesses
system.cpu.dcache.WriteLineReq_avg_miss_latency::.cpu.data 31723.672414                       # average WriteLineReq miss latency
system.cpu.dcache.WriteLineReq_avg_miss_latency::total 31723.672414                       # average WriteLineReq miss latency
system.cpu.dcache.WriteLineReq_mshr_misses::.cpu.data           58                       # number of WriteLineReq MSHR misses
system.cpu.dcache.WriteLineReq_mshr_misses::total           58                       # number of WriteLineReq MSHR misses
system.cpu.dcache.WriteLineReq_mshr_miss_latency::.cpu.data      1781973                       # number of WriteLineReq MSHR miss cycles
system.cpu.dcache.WriteLineReq_mshr_miss_latency::total      1781973                       # number of WriteLineReq MSHR miss cycles
system.cpu.dcache.WriteLineReq_mshr_miss_rate::.cpu.data     0.568627                       # mshr miss rate for WriteLineReq accesses
system.cpu.dcache.WriteLineReq_mshr_miss_rate::total     0.568627                       # mshr miss rate for WriteLineReq accesses
system.cpu.dcache.WriteLineReq_avg_mshr_miss_latency::.cpu.data 30723.672414                       # average WriteLineReq mshr miss latency
system.cpu.dcache.WriteLineReq_avg_mshr_miss_latency::total 30723.672414                       # average WriteLineReq mshr miss latency
system.cpu.dcache.LoadLockedReq_hits::.cpu.data          159                       # number of LoadLockedReq hits
system.cpu.dcache.LoadLockedReq_hits::total          159                       # number of LoadLockedReq hits
system.cpu.dcache.LoadLockedReq_misses::.cpu.data            2                       # number of LoadLockedReq misses
system.cpu.dcache.LoadLockedReq_misses::total            2                       # number of LoadLockedReq misses
system.cpu.dcache.LoadLockedReq_miss_latency::.cpu.data       184000                       # number of LoadLockedReq miss cycles
system.cpu.dcache.LoadLockedReq_miss_latency::total       184000                       # number of LoadLockedReq miss cycles
system.cpu.dcache.LoadLockedReq_accesses::.cpu.data          161                       # number of LoadLockedReq accesses(hits+misses)
system.cpu.dcache.LoadLockedReq_accesses::total          161                       # number of LoadLockedReq accesses(hits+misses)
system.cpu.dcache.LoadLockedReq_miss_rate::.cpu.data     0.012422                       # miss rate for LoadLockedReq accesses
system.cpu.dcache.LoadLockedReq_miss_rate::total     0.012422                       # miss rate for LoadLockedReq accesses
system.cpu.dcache.LoadLockedReq_avg_miss_latency::.cpu.data        92000                       # average LoadLockedReq miss latency
system.cpu.dcache.LoadLockedReq_avg_miss_latency::total        92000                       # average LoadLockedReq miss latency
system.cpu.dcache.LoadLockedReq_mshr_hits::.cpu.data            1                       # number of LoadLockedReq MSHR hits
system.cpu.dcache.LoadLockedReq_mshr_hits::total            1                       # number of LoadLockedReq MSHR hits
system.cpu.dcache.LoadLockedReq_mshr_misses::.cpu.data            1                       # number of LoadLockedReq MSHR misses
system.cpu.dcache.LoadLockedReq_mshr_misses::total            1                       # number of LoadLockedReq MSHR misses
system.cpu.dcache.LoadLockedReq_mshr_miss_latency::.cpu.data        82000                       # number of LoadLockedReq MSHR miss cycles
system.cpu.dcache.LoadLockedReq_mshr_miss_latency::total        82000                       # number of LoadLockedReq MSHR miss cycles
system.cpu.dcache.LoadLockedReq_mshr_miss_rate::.cpu.data     0.006211                       # mshr miss rate for LoadLockedReq accesses
system.cpu.dcache.LoadLockedReq_mshr_miss_rate::total     0.006211                       # mshr miss rate for LoadLockedReq accesses
system.cpu.dcache.LoadLockedReq_avg_mshr_miss_latency::.cpu.data        82000                       # average LoadLockedReq mshr miss latency
system.cpu.dcache.LoadLockedReq_avg_mshr_miss_latency::total        82000                       # average LoadLockedReq mshr miss latency
system.cpu.dcache.StoreCondReq_hits::.cpu.data          138                       # number of StoreCondReq hits
system.cpu.dcache.StoreCondReq_hits::total          138                       # number of StoreCondReq hits
system.cpu.dcache.StoreCondReq_accesses::.cpu.data          138                       # number of StoreCondReq accesses(hits+misses)
system.cpu.dcache.StoreCondReq_accesses::total          138                       # number of StoreCondReq accesses(hits+misses)
system.cpu.dcache.power_state.pwrStateResidencyTicks::UNDEFINED    317412000                       # Cumulative time (in ticks) in various power states
system.cpu.dcache.tags.tagsinuse           435.153299                       # Cycle average of tags in use
system.cpu.dcache.tags.total_refs               73608                       # Total number of references to valid blocks.
system.cpu.dcache.tags.sampled_refs             11311                       # Sample count of references to valid blocks.
system.cpu.dcache.tags.avg_refs              6.507647                       # Average number of references to valid blocks.
system.cpu.dcache.tags.warmup_cycle            176500                       # Cycle when the warmup percentage was hit.
system.cpu.dcache.tags.occ_blocks::.cpu.data   435.153299                       # Average occupied blocks per requestor
system.cpu.dcache.tags.occ_percent::.cpu.data     0.849909                       # Average percentage of cache occupancy
system.cpu.dcache.tags.occ_percent::total     0.849909                       # Average percentage of cache occupancy
system.cpu.dcache.tags.occ_task_id_blocks::1024          512                       # Occupied blocks per task id
system.cpu.dcache.tags.age_task_id_blocks_1024::0          492                       # Occupied blocks per task id
system.cpu.dcache.tags.age_task_id_blocks_1024::1           20                       # Occupied blocks per task id
system.cpu.dcache.tags.occ_task_id_percent::1024            1                       # Percentage of cache occupancy per task id
system.cpu.dcache.tags.tag_accesses            311053                       # Number of tag accesses
system.cpu.dcache.tags.data_accesses           311053                       # Number of data accesses
system.cpu.dcache.tags.power_state.pwrStateResidencyTicks::UNDEFINED    317412000                       # Cumulative time (in ticks) in various power states
system.cpu.power_state.pwrStateResidencyTicks::ON    317412000                       # Cumulative time (in ticks) in various power states

---------- End Simulation Statistics   ----------
