
---------- Begin Simulation Statistics ----------
final_tick                                  241088500                       # Number of ticks from beginning of simulation (restored from checkpoints and never reset)
host_inst_rate                                 111859                       # Simulator instruction rate (inst/s)
host_mem_usage                                 857644                       # Number of bytes of host memory used
host_op_rate                                   112692                       # Simulator op (including micro ops) rate (op/s)
host_seconds                                     4.47                       # Real time elapsed on the host
host_tick_rate                               53931755                       # Simulator tick rate (ticks/s)
sim_freq                                 1000000000000                       # Frequency of simulated ticks
sim_insts                                      500004                       # Number of instructions simulated
sim_ops                                        503758                       # Number of ops (including micro ops) simulated
sim_seconds                                  0.000241                       # Number of seconds simulated
sim_ticks                                   241088500                       # Number of ticks simulated
system.cpu.branchPred.BTBCorrect                    0                       # Number of correct BTB predictions (this stat may not work properly.
system.cpu.branchPred.BTBHitPct             99.448447                       # BTB Hit Percentage
system.cpu.branchPred.BTBHits                   86006                       # Number of BTB hits
system.cpu.branchPred.BTBLookups                86483                       # Number of BTB lookups
system.cpu.branchPred.RASInCorrect                  1                       # Number of incorrect RAS predictions.
system.cpu.branchPred.condIncorrect               844                       # Number of conditional branches incorrect
system.cpu.branchPred.condPredicted             87511                       # Number of conditional branches predicted
system.cpu.branchPred.indirectHits                  1                       # Number of indirect target hits.
system.cpu.branchPred.indirectLookups             135                       # Number of indirect predictor lookups.
system.cpu.branchPred.indirectMisses              134                       # Number of indirect misses.
system.cpu.branchPred.lookups                   95963                       # Number of BP lookups
system.cpu.branchPred.loop_predictor.loopPredictorCorrect         9619                       # Number of times the loop predictor is the provider and the prediction is correct
system.cpu.branchPred.loop_predictor.loopPredictorWrong        70864                       # Number of times the loop predictor is the provider and the prediction is wrong
system.cpu.branchPred.statistical_corrector.scPredictorCorrect         4842                       # Number of time the SC predictor is the provider and the prediction is correct
system.cpu.branchPred.statistical_corrector.scPredictorWrong        75641                       # Number of time the SC predictor is the provider and the prediction is wrong
system.cpu.branchPred.tage.bimodalAltMatchProviderCorrect           65                       # Number of times TAGE Alt Match is the bimodal and it is the provider and the prediction is correct
system.cpu.branchPred.tage.bimodalAltMatchProviderWrong            9                       # Number of times TAGE Alt Match is the bimodal and it is the provider and the prediction is wrong
system.cpu.branchPred.tage.tageAltMatchProvider::0          763                       # TAGE provider for alt match
system.cpu.branchPred.tage.tageAltMatchProvider::1            0                       # TAGE provider for alt match
system.cpu.branchPred.tage.tageAltMatchProvider::2           46                       # TAGE provider for alt match
system.cpu.branchPred.tage.tageAltMatchProvider::3            0                       # TAGE provider for alt match
system.cpu.branchPred.tage.tageAltMatchProvider::4           40                       # TAGE provider for alt match
system.cpu.branchPred.tage.tageAltMatchProvider::5            0                       # TAGE provider for alt match
system.cpu.branchPred.tage.tageAltMatchProvider::6          275                       # TAGE provider for alt match
system.cpu.branchPred.tage.tageAltMatchProvider::7          136                       # TAGE provider for alt match
system.cpu.branchPred.tage.tageAltMatchProvider::8           60                       # TAGE provider for alt match
system.cpu.branchPred.tage.tageAltMatchProvider::9          145                       # TAGE provider for alt match
system.cpu.branchPred.tage.tageAltMatchProvider::10          215                       # TAGE provider for alt match
system.cpu.branchPred.tage.tageAltMatchProvider::11          206                       # TAGE provider for alt match
system.cpu.branchPred.tage.tageAltMatchProvider::12          128                       # TAGE provider for alt match
system.cpu.branchPred.tage.tageAltMatchProvider::13          299                       # TAGE provider for alt match
system.cpu.branchPred.tage.tageAltMatchProvider::14          248                       # TAGE provider for alt match
system.cpu.branchPred.tage.tageAltMatchProvider::15          263                       # TAGE provider for alt match
system.cpu.branchPred.tage.tageAltMatchProvider::16          108                       # TAGE provider for alt match
system.cpu.branchPred.tage.tageAltMatchProvider::17          116                       # TAGE provider for alt match
system.cpu.branchPred.tage.tageAltMatchProvider::18          294                       # TAGE provider for alt match
system.cpu.branchPred.tage.tageAltMatchProvider::19          258                       # TAGE provider for alt match
system.cpu.branchPred.tage.tageAltMatchProvider::20           36                       # TAGE provider for alt match
system.cpu.branchPred.tage.tageAltMatchProvider::21            0                       # TAGE provider for alt match
system.cpu.branchPred.tage.tageAltMatchProvider::22           76                       # TAGE provider for alt match
system.cpu.branchPred.tage.tageAltMatchProvider::23            0                       # TAGE provider for alt match
system.cpu.branchPred.tage.tageAltMatchProvider::24           61                       # TAGE provider for alt match
system.cpu.branchPred.tage.tageAltMatchProvider::25            0                       # TAGE provider for alt match
system.cpu.branchPred.tage.tageAltMatchProvider::26           62                       # TAGE provider for alt match
system.cpu.branchPred.tage.tageAltMatchProvider::27            0                       # TAGE provider for alt match
system.cpu.branchPred.tage.tageAltMatchProvider::28           79                       # TAGE provider for alt match
system.cpu.branchPred.tage.tageAltMatchProvider::29            0                       # TAGE provider for alt match
system.cpu.branchPred.tage.tageAltMatchProvider::30            0                       # TAGE provider for alt match
system.cpu.branchPred.tage.tageAltMatchProviderCorrect          269                       # Number of times TAGE Alt Match is the provider and the prediction is correct
system.cpu.branchPred.tage.tageAltMatchProviderWouldHaveHit           10                       # Number of times TAGE Longest Match is the provider, the prediction is wrong and Alt Match prediction was correct
system.cpu.branchPred.tage.tageAltMatchProviderWrong          142                       # Number of times TAGE Alt Match is the provider and the prediction is wrong
system.cpu.branchPred.tage.tageBimodalProviderCorrect        75734                       # Number of times there are no hits on the TAGE tables and the bimodal prediction is correct
system.cpu.branchPred.tage.tageBimodalProviderWrong          285                       # Number of times there are no hits on the TAGE tables and the bimodal prediction is wrong
system.cpu.branchPred.tage.tageLongestMatchProvider::0            0                       # TAGE provider for longest match
system.cpu.branchPred.tage.tageLongestMatchProvider::1            0                       # TAGE provider for longest match
system.cpu.branchPred.tage.tageLongestMatchProvider::2          650                       # TAGE provider for longest match
system.cpu.branchPred.tage.tageLongestMatchProvider::3            0                       # TAGE provider for longest match
system.cpu.branchPred.tage.tageLongestMatchProvider::4           48                       # TAGE provider for longest match
system.cpu.branchPred.tage.tageLongestMatchProvider::5            0                       # TAGE provider for longest match
system.cpu.branchPred.tage.tageLongestMatchProvider::6           40                       # TAGE provider for longest match
system.cpu.branchPred.tage.tageLongestMatchProvider::7           64                       # TAGE provider for longest match
system.cpu.branchPred.tage.tageLongestMatchProvider::8          301                       # TAGE provider for longest match
system.cpu.branchPred.tage.tageLongestMatchProvider::9           52                       # TAGE provider for longest match
system.cpu.branchPred.tage.tageLongestMatchProvider::10          248                       # TAGE provider for longest match
system.cpu.branchPred.tage.tageLongestMatchProvider::11          125                       # TAGE provider for longest match
system.cpu.branchPred.tage.tageLongestMatchProvider::12           68                       # TAGE provider for longest match
system.cpu.branchPred.tage.tageLongestMatchProvider::13          149                       # TAGE provider for longest match
system.cpu.branchPred.tage.tageLongestMatchProvider::14          212                       # TAGE provider for longest match
system.cpu.branchPred.tage.tageLongestMatchProvider::15          308                       # TAGE provider for longest match
system.cpu.branchPred.tage.tageLongestMatchProvider::16          133                       # TAGE provider for longest match
system.cpu.branchPred.tage.tageLongestMatchProvider::17          183                       # TAGE provider for longest match
system.cpu.branchPred.tage.tageLongestMatchProvider::18          249                       # TAGE provider for longest match
system.cpu.branchPred.tage.tageLongestMatchProvider::19          270                       # TAGE provider for longest match
system.cpu.branchPred.tage.tageLongestMatchProvider::20          165                       # TAGE provider for longest match
system.cpu.branchPred.tage.tageLongestMatchProvider::21            0                       # TAGE provider for longest match
system.cpu.branchPred.tage.tageLongestMatchProvider::22          329                       # TAGE provider for longest match
system.cpu.branchPred.tage.tageLongestMatchProvider::23            0                       # TAGE provider for longest match
system.cpu.branchPred.tage.tageLongestMatchProvider::24           36                       # TAGE provider for longest match
system.cpu.branchPred.tage.tageLongestMatchProvider::25            0                       # TAGE provider for longest match
system.cpu.branchPred.tage.tageLongestMatchProvider::26           82                       # TAGE provider for longest match
system.cpu.branchPred.tage.tageLongestMatchProvider::27            0                       # TAGE provider for longest match
system.cpu.branchPred.tage.tageLongestMatchProvider::28           95                       # TAGE provider for longest match
system.cpu.branchPred.tage.tageLongestMatchProvider::29            0                       # TAGE provider for longest match
system.cpu.branchPred.tage.tageLongestMatchProvider::30          107                       # TAGE provider for longest match
system.cpu.branchPred.tage.tageLongestMatchProviderCorrect         3403                       # Number of times TAGE Longest Match is the provider and the prediction is correct
system.cpu.branchPred.tage.tageLongestMatchProviderWouldHaveHit           40                       # Number of times TAGE Alt Match is the provider, the prediction is wrong and Longest Match prediction was correct
system.cpu.branchPred.tage.tageLongestMatchProviderWrong          100                       # Number of times TAGE Longest Match is the provider and the prediction is wrong
system.cpu.branchPred.usedRAS                    2727                       # Number of times the RAS was used to get a target.
system.cpu.branchPredindirectMispredicted           42                       # Number of mispredicted indirect branches.
system.cpu.cc_regfile_reads                    248871                       # number of cc regfile reads
system.cpu.cc_regfile_writes                   249177                       # number of cc regfile writes
system.cpu.commit.amos                              0                       # Number of atomic instructions committed
system.cpu.commit.branchMispredicts               649                       # The number of times a branch was mispredicted
system.cpu.commit.branches                      87811                       # Number of branches committed
system.cpu.commit.bw_lim_events                 10637                       # number cycles where commit BW limit reached
system.cpu.commit.commitNonSpecStalls              26                       # The number of times commit has been forced to stall to communicate backwards
system.cpu.commit.commitSquashedInsts           24177                       # The number of squashed insts skipped by commit
system.cpu.commit.committedInsts               500215                       # Number of instructions committed
system.cpu.commit.committedOps                 503969                       # Number of ops (including micro ops) committed
system.cpu.commit.committed_per_cycle::samples       447880                       # Number of insts commited each cycle
system.cpu.commit.committed_per_cycle::mean     1.125232                       # Number of insts commited each cycle
system.cpu.commit.committed_per_cycle::stdev     2.187481                       # Number of insts commited each cycle
system.cpu.commit.committed_per_cycle::underflows            0      0.00%      0.00% # Number of insts commited each cycle
system.cpu.commit.committed_per_cycle::0       318303     71.07%     71.07% # Number of insts commited each cycle
system.cpu.commit.committed_per_cycle::1        33833      7.55%     78.62% # Number of insts commited each cycle
system.cpu.commit.committed_per_cycle::2        19206      4.29%     82.91% # Number of insts commited each cycle
system.cpu.commit.committed_per_cycle::3        11938      2.67%     85.58% # Number of insts commited each cycle
system.cpu.commit.committed_per_cycle::4         4768      1.06%     86.64% # Number of insts commited each cycle
system.cpu.commit.committed_per_cycle::5         4302      0.96%     87.60% # Number of insts commited each cycle
system.cpu.commit.committed_per_cycle::6        44019      9.83%     97.43% # Number of insts commited each cycle
system.cpu.commit.committed_per_cycle::7          874      0.20%     97.63% # Number of insts commited each cycle
system.cpu.commit.committed_per_cycle::8        10637      2.37%    100.00% # Number of insts commited each cycle
system.cpu.commit.committed_per_cycle::overflows            0      0.00%    100.00% # Number of insts commited each cycle
system.cpu.commit.committed_per_cycle::min_value            0                       # Number of insts commited each cycle
system.cpu.commit.committed_per_cycle::max_value            8                       # Number of insts commited each cycle
system.cpu.commit.committed_per_cycle::total       447880                       # Number of insts commited each cycle
system.cpu.commit.fp_insts                          0                       # Number of committed floating point instructions.
system.cpu.commit.function_calls                 2417                       # Number of function calls committed.
system.cpu.commit.int_insts                    423441                       # Number of committed integer instructions.
system.cpu.commit.loads                        144014                       # Number of loads committed
system.cpu.commit.membars                          16                       # Number of memory barriers committed
system.cpu.commit.op_class_0::No_OpClass            4      0.00%      0.00% # Class of committed instruction
system.cpu.commit.op_class_0::IntAlu           283767     56.31%     56.31% # Class of committed instruction
system.cpu.commit.op_class_0::IntMult             449      0.09%     56.40% # Class of committed instruction
system.cpu.commit.op_class_0::IntDiv                2      0.00%     56.40% # Class of committed instruction
system.cpu.commit.op_class_0::FloatAdd              0      0.00%     56.40% # Class of committed instruction
system.cpu.commit.op_class_0::FloatCmp              0      0.00%     56.40% # Class of committed instruction
system.cpu.commit.op_class_0::FloatCvt              0      0.00%     56.40% # Class of committed instruction
system.cpu.commit.op_class_0::FloatMult             0      0.00%     56.40% # Class of committed instruction
system.cpu.commit.op_class_0::FloatMultAcc            0      0.00%     56.40% # Class of committed instruction
system.cpu.commit.op_class_0::FloatDiv              0      0.00%     56.40% # Class of committed instruction
system.cpu.commit.op_class_0::FloatMisc             1      0.00%     56.40% # Class of committed instruction
system.cpu.commit.op_class_0::FloatSqrt             0      0.00%     56.40% # Class of committed instruction
system.cpu.commit.op_class_0::SimdAdd              19      0.00%     56.40% # Class of committed instruction
system.cpu.commit.op_class_0::SimdAddAcc            0      0.00%     56.40% # Class of committed instruction
system.cpu.commit.op_class_0::SimdAlu              12      0.00%     56.40% # Class of committed instruction
system.cpu.commit.op_class_0::SimdCmp              16      0.00%     56.41% # Class of committed instruction
system.cpu.commit.op_class_0::SimdCvt               0      0.00%     56.41% # Class of committed instruction
system.cpu.commit.op_class_0::SimdMisc             16      0.00%     56.41% # Class of committed instruction
system.cpu.commit.op_class_0::SimdMult              0      0.00%     56.41% # Class of committed instruction
system.cpu.commit.op_class_0::SimdMultAcc            0      0.00%     56.41% # Class of committed instruction
system.cpu.commit.op_class_0::SimdShift             0      0.00%     56.41% # Class of committed instruction
system.cpu.commit.op_class_0::SimdShiftAcc            0      0.00%     56.41% # Class of committed instruction
system.cpu.commit.op_class_0::SimdDiv               0      0.00%     56.41% # Class of committed instruction
system.cpu.commit.op_class_0::SimdSqrt              0      0.00%     56.41% # Class of committed instruction
system.cpu.commit.op_class_0::SimdFloatAdd            0      0.00%     56.41% # Class of committed instruction
system.cpu.commit.op_class_0::SimdFloatAlu            0      0.00%     56.41% # Class of committed instruction
system.cpu.commit.op_class_0::SimdFloatCmp            0      0.00%     56.41% # Class of committed instruction
system.cpu.commit.op_class_0::SimdFloatCvt            0      0.00%     56.41% # Class of committed instruction
system.cpu.commit.op_class_0::SimdFloatDiv            0      0.00%     56.41% # Class of committed instruction
system.cpu.commit.op_class_0::SimdFloatMisc            0      0.00%     56.41% # Class of committed instruction
system.cpu.commit.op_class_0::SimdFloatMult            0      0.00%     56.41% # Class of committed instruction
system.cpu.commit.op_class_0::SimdFloatMultAcc            0      0.00%     56.41% # Class of committed instruction
system.cpu.commit.op_class_0::SimdFloatSqrt            0      0.00%     56.41% # Class of committed instruction
system.cpu.commit.op_class_0::SimdReduceAdd            0      0.00%     56.41% # Class of committed instruction
system.cpu.commit.op_class_0::SimdReduceAlu            0      0.00%     56.41% # Class of committed instruction
system.cpu.commit.op_class_0::SimdReduceCmp            0      0.00%     56.41% # Class of committed instruction
system.cpu.commit.op_class_0::SimdFloatReduceAdd            0      0.00%     56.41% # Class of committed instruction
system.cpu.commit.op_class_0::SimdFloatReduceCmp            0      0.00%     56.41% # Class of committed instruction
system.cpu.commit.op_class_0::SimdAes               0      0.00%     56.41% # Class of committed instruction
system.cpu.commit.op_class_0::SimdAesMix            0      0.00%     56.41% # Class of committed instruction
system.cpu.commit.op_class_0::SimdSha1Hash            0      0.00%     56.41% # Class of committed instruction
system.cpu.commit.op_class_0::SimdSha1Hash2            0      0.00%     56.41% # Class of committed instruction
system.cpu.commit.op_class_0::SimdSha256Hash            0      0.00%     56.41% # Class of committed instruction
system.cpu.commit.op_class_0::SimdSha256Hash2            0      0.00%     56.41% # Class of committed instruction
system.cpu.commit.op_class_0::SimdShaSigma2            0      0.00%     56.41% # Class of committed instruction
system.cpu.commit.op_class_0::SimdShaSigma3            0      0.00%     56.41% # Class of committed instruction
system.cpu.commit.op_class_0::SimdPredAlu            0      0.00%     56.41% # Class of committed instruction
system.cpu.commit.op_class_0::MemRead          144014     28.58%     84.99% # Class of committed instruction
system.cpu.commit.op_class_0::MemWrite          75669     15.01%    100.00% # Class of committed instruction
system.cpu.commit.op_class_0::FloatMemRead            0      0.00%    100.00% # Class of committed instruction
system.cpu.commit.op_class_0::FloatMemWrite            0      0.00%    100.00% # Class of committed instruction
system.cpu.commit.op_class_0::IprAccess             0      0.00%    100.00% # Class of committed instruction
system.cpu.commit.op_class_0::InstPrefetch            0      0.00%    100.00% # Class of committed instruction
system.cpu.commit.op_class_0::total            503969                       # Class of committed instruction
system.cpu.commit.refs                         219683                       # Number of memory references committed
system.cpu.commit.swp_count                         0                       # Number of s/w prefetches committed
system.cpu.commit.vec_insts                       248                       # Number of committed Vector instructions.
system.cpu.committedInsts                      500004                       # Number of Instructions Simulated
system.cpu.committedOps                        503758                       # Number of Ops (including micro ops) Simulated
system.cpu.cpi                               0.964348                       # CPI: Cycles Per Instruction
system.cpu.cpi_total                         0.964348                       # CPI: Total CPI of All Threads
system.cpu.decode.BlockedCycles                344022                       # Number of cycles decode is blocked
system.cpu.decode.BranchMispred                   202                       # Number of times decode detected a branch misprediction
system.cpu.decode.BranchResolved                84517                       # Number of times decode resolved a branch
system.cpu.decode.DecodedInsts                 536132                       # Number of instructions handled by decode
system.cpu.decode.IdleCycles                    29733                       # Number of cycles decode is idle
system.cpu.decode.RunCycles                     57180                       # Number of cycles decode is running
system.cpu.decode.SquashCycles                    828                       # Number of cycles decode is squashing
system.cpu.decode.SquashedInsts                   670                       # Number of squashed instructions handled by decode
system.cpu.decode.UnblockCycles                 19562                       # Number of cycles decode is unblocking
system.cpu.dtb.accesses                             0                       # DTB accesses
system.cpu.dtb.align_faults                         0                       # Number of TLB faults due to alignment restrictions
system.cpu.dtb.domain_faults                        0                       # Number of TLB faults due to domain restrictions
system.cpu.dtb.flush_entries                        0                       # Number of entries that have been flushed from TLB
system.cpu.dtb.flush_tlb                            0                       # Number of times complete TLB was flushed
system.cpu.dtb.flush_tlb_asid                       0                       # Number of times TLB was flushed by ASID
system.cpu.dtb.flush_tlb_mva                        0                       # Number of times TLB was flushed by MVA
system.cpu.dtb.flush_tlb_mva_asid                   0                       # Number of times TLB was flushed by MVA & ASID
system.cpu.dtb.hits                                 0                       # DTB hits
system.cpu.dtb.inst_accesses                        0                       # ITB inst accesses
system.cpu.dtb.inst_hits                            0                       # ITB inst hits
system.cpu.dtb.inst_misses                          0                       # ITB inst misses
system.cpu.dtb.misses                               0                       # DTB misses
system.cpu.dtb.perms_faults                         0                       # Number of TLB faults due to permissions restrictions
system.cpu.dtb.prefetch_faults                      0                       # Number of TLB faults due to prefetch
system.cpu.dtb.read_accesses                        0                       # DTB read accesses
system.cpu.dtb.read_hits                            0                       # DTB read hits
system.cpu.dtb.read_misses                          0                       # DTB read misses
system.cpu.dtb.stage2_mmu.stage2_tlb.accesses            0                       # DTB accesses
system.cpu.dtb.stage2_mmu.stage2_tlb.align_faults            0                       # Number of TLB faults due to alignment restrictions
system.cpu.dtb.stage2_mmu.stage2_tlb.domain_faults            0                       # Number of TLB faults due to domain restrictions
system.cpu.dtb.stage2_mmu.stage2_tlb.flush_entries            0                       # Number of entries that have been flushed from TLB
system.cpu.dtb.stage2_mmu.stage2_tlb.flush_tlb            0                       # Number of times complete TLB was flushed
system.cpu.dtb.stage2_mmu.stage2_tlb.flush_tlb_asid            0                       # Number of times TLB was flushed by ASID
system.cpu.dtb.stage2_mmu.stage2_tlb.flush_tlb_mva            0                       # Number of times TLB was flushed by MVA
system.cpu.dtb.stage2_mmu.stage2_tlb.flush_tlb_mva_asid            0                       # Number of times TLB was flushed by MVA & ASID
system.cpu.dtb.stage2_mmu.stage2_tlb.hits            0                       # DTB hits
system.cpu.dtb.stage2_mmu.stage2_tlb.inst_accesses            0                       # ITB inst accesses
system.cpu.dtb.stage2_mmu.stage2_tlb.inst_hits            0                       # ITB inst hits
system.cpu.dtb.stage2_mmu.stage2_tlb.inst_misses            0                       # ITB inst misses
system.cpu.dtb.stage2_mmu.stage2_tlb.misses            0                       # DTB misses
system.cpu.dtb.stage2_mmu.stage2_tlb.perms_faults            0                       # Number of TLB faults due to permissions restrictions
system.cpu.dtb.stage2_mmu.stage2_tlb.prefetch_faults            0                       # Number of TLB faults due to prefetch
system.cpu.dtb.stage2_mmu.stage2_tlb.read_accesses            0                       # DTB read accesses
system.cpu.dtb.stage2_mmu.stage2_tlb.read_hits            0                       # DTB read hits
system.cpu.dtb.stage2_mmu.stage2_tlb.read_misses            0                       # DTB read misses
system.cpu.dtb.stage2_mmu.stage2_tlb.walker.walkRequestOrigin_Requested::Data            0                       # Table walker requests started/completed, data/inst
system.cpu.dtb.stage2_mmu.stage2_tlb.walker.walkRequestOrigin_Requested::Inst            0                       # Table walker requests started/completed, data/inst
system.cpu.dtb.stage2_mmu.stage2_tlb.walker.walkRequestOrigin_Requested::total            0                       # Table walker requests started/completed, data/inst
system.cpu.dtb.stage2_mmu.stage2_tlb.walker.walkRequestOrigin_Completed::Data            0                       # Table walker requests started/completed, data/inst
system.cpu.dtb.stage2_mmu.stage2_tlb.walker.walkRequestOrigin_Completed::Inst            0                       # Table walker requests started/completed, data/inst
system.cpu.dtb.stage2_mmu.stage2_tlb.walker.walkRequestOrigin_Completed::total            0                       # Table walker requests started/completed, data/inst
system.cpu.dtb.stage2_mmu.stage2_tlb.walker.walkRequestOrigin::total            0                       # Table walker requests started/completed, data/inst
system.cpu.dtb.stage2_mmu.stage2_tlb.walker.walks            0                       # Table walker walks requested
system.cpu.dtb.stage2_mmu.stage2_tlb.write_accesses            0                       # DTB write accesses
system.cpu.dtb.stage2_mmu.stage2_tlb.write_hits            0                       # DTB write hits
system.cpu.dtb.stage2_mmu.stage2_tlb.write_misses            0                       # DTB write misses
system.cpu.dtb.walker.walkRequestOrigin_Requested::Data            0                       # Table walker requests started/completed, data/inst
system.cpu.dtb.walker.walkRequestOrigin_Requested::Inst            0                       # Table walker requests started/completed, data/inst
system.cpu.dtb.walker.walkRequestOrigin_Requested::total            0                       # Table walker requests started/completed, data/inst
system.cpu.dtb.walker.walkRequestOrigin_Completed::Data            0                       # Table walker requests started/completed, data/inst
system.cpu.dtb.walker.walkRequestOrigin_Completed::Inst            0                       # Table walker requests started/completed, data/inst
system.cpu.dtb.walker.walkRequestOrigin_Completed::total            0                       # Table walker requests started/completed, data/inst
system.cpu.dtb.walker.walkRequestOrigin::total            0                       # Table walker requests started/completed, data/inst
system.cpu.dtb.walker.walks                         0                       # Table walker walks requested
system.cpu.dtb.write_accesses                       0                       # DTB write accesses
system.cpu.dtb.write_hits                           0                       # DTB write hits
system.cpu.dtb.write_misses                         0                       # DTB write misses
system.cpu.fetch.Branches                       95963                       # Number of branches that fetch encountered
system.cpu.fetch.CacheLines                     15255                       # Number of cache lines fetched
system.cpu.fetch.Cycles                        426567                       # Number of cycles fetch has run and was not squashing or blocked
system.cpu.fetch.IcacheSquashes                   392                       # Number of outstanding Icache misses that were squashed
system.cpu.fetch.IcacheWaitRetryStallCycles           26                       # Number of stall cycles due to full MSHR
system.cpu.fetch.Insts                         545858                       # Number of instructions fetch has processed
system.cpu.fetch.MiscStallCycles                    2                       # Number of cycles fetch has spent waiting on interrupts, or bad addresses, or out of MSHRs
system.cpu.fetch.SquashCycles                    2046                       # Number of cycles fetch has spent squashing
system.cpu.fetch.branchRate                  0.199020                       # Number of branch fetches per cycle
system.cpu.fetch.icacheStallCycles              23707                       # Number of cycles fetch is stalled on an Icache miss
system.cpu.fetch.predictedBranches              88734                       # Number of branches that fetch has predicted taken
system.cpu.fetch.rate                        1.132067                       # Number of inst fetches per cycle
system.cpu.fetch.rateDist::samples             451325                       # Number of instructions fetched each cycle (Total)
system.cpu.fetch.rateDist::mean              1.221964                       # Number of instructions fetched each cycle (Total)
system.cpu.fetch.rateDist::stdev             2.365251                       # Number of instructions fetched each cycle (Total)
system.cpu.fetch.rateDist::underflows               0      0.00%      0.00% # Number of instructions fetched each cycle (Total)
system.cpu.fetch.rateDist::0                   344814     76.40%     76.40% # Number of instructions fetched each cycle (Total)
system.cpu.fetch.rateDist::1                     4126      0.91%     77.31% # Number of instructions fetched each cycle (Total)
system.cpu.fetch.rateDist::2                    12872      2.85%     80.17% # Number of instructions fetched each cycle (Total)
system.cpu.fetch.rateDist::3                     1334      0.30%     80.46% # Number of instructions fetched each cycle (Total)
system.cpu.fetch.rateDist::4                    14717      3.26%     83.72% # Number of instructions fetched each cycle (Total)
system.cpu.fetch.rateDist::5                      735      0.16%     83.89% # Number of instructions fetched each cycle (Total)
system.cpu.fetch.rateDist::6                    61867     13.71%     97.59% # Number of instructions fetched each cycle (Total)
system.cpu.fetch.rateDist::7                     2994      0.66%     98.26% # Number of instructions fetched each cycle (Total)
system.cpu.fetch.rateDist::8                     7866      1.74%    100.00% # Number of instructions fetched each cycle (Total)
system.cpu.fetch.rateDist::overflows                0      0.00%    100.00% # Number of instructions fetched each cycle (Total)
system.cpu.fetch.rateDist::min_value                0                       # Number of instructions fetched each cycle (Total)
system.cpu.fetch.rateDist::max_value                8                       # Number of instructions fetched each cycle (Total)
system.cpu.fetch.rateDist::total               451325                       # Number of instructions fetched each cycle (Total)
system.cpu.idleCycles                           30853                       # Total number of cycles that the CPU has spent unscheduled due to idling
system.cpu.iew.branchMispredicts                  729                       # Number of branch mispredicts detected at execute
system.cpu.iew.exec_branches                    91059                       # Number of branches executed
system.cpu.iew.exec_nop                           257                       # number of nop insts executed
system.cpu.iew.exec_rate                     1.116789                       # Inst execution rate
system.cpu.iew.exec_refs                       242856                       # number of memory reference insts executed
system.cpu.iew.exec_stores                      78361                       # Number of stores executed
system.cpu.iew.exec_swp                             0                       # number of swp insts executed
system.cpu.iew.iewBlockCycles                    3112                       # Number of cycles IEW is blocking
system.cpu.iew.iewDispLoadInsts                149919                       # Number of dispatched load instructions
system.cpu.iew.iewDispNonSpecInsts                 33                       # Number of dispatched non-speculative instructions
system.cpu.iew.iewDispSquashedInsts               294                       # Number of squashed instructions skipped by dispatch
system.cpu.iew.iewDispStoreInsts                78904                       # Number of dispatched store instructions
system.cpu.iew.iewDispatchedInsts              528180                       # Number of instructions dispatched to IQ
system.cpu.iew.iewExecLoadInsts                164495                       # Number of load instructions executed
system.cpu.iew.iewExecSquashedInsts               855                       # Number of squashed instructions skipped in execute
system.cpu.iew.iewExecutedInsts                538491                       # Number of executed instructions
system.cpu.iew.iewIQFullEvents                      6                       # Number of times the IQ has become full, causing a stall
system.cpu.iew.iewIdleCycles                        0                       # Number of cycles IEW is idle
system.cpu.iew.iewLSQFullEvents                 17058                       # Number of times the LSQ has become full, causing a stall
system.cpu.iew.iewSquashCycles                    828                       # Number of cycles IEW is squashing
system.cpu.iew.iewUnblockCycles                 17072                       # Number of cycles IEW is unblocking
system.cpu.iew.lsq.thread0.blockedLoads             0                       # Number of blocked loads due to partial load-store forwarding
system.cpu.iew.lsq.thread0.cacheBlocked          5155                       # Number of times an access to memory failed due to the cache being blocked
system.cpu.iew.lsq.thread0.forwLoads              522                       # Number of loads that had data forwarded from stores
system.cpu.iew.lsq.thread0.ignoredResponses            4                       # Number of memory responses ignored because the instruction is squashed
system.cpu.iew.lsq.thread0.invAddrLoads             0                       # Number of loads ignored due to an invalid address
system.cpu.iew.lsq.thread0.invAddrSwpfs             0                       # Number of software prefetches ignored due to an invalid address
system.cpu.iew.lsq.thread0.memOrderViolation           37                       # Number of memory ordering violations
system.cpu.iew.lsq.thread0.rescheduledLoads           16                       # Number of loads that were rescheduled
system.cpu.iew.lsq.thread0.squashedLoads         5889                       # Number of loads squashed
system.cpu.iew.lsq.thread0.squashedStores         3227                       # Number of stores squashed
system.cpu.iew.memOrderViolationEvents             37                       # Number of memory order violations
system.cpu.iew.predictedNotTakenIncorrect          446                       # Number of branches that were predicted not taken incorrectly
system.cpu.iew.predictedTakenIncorrect            283                       # Number of branches that were predicted taken incorrectly
system.cpu.iew.wb_consumers                    634199                       # num instructions consuming a value
system.cpu.iew.wb_count                        520364                       # cumulative count of insts written-back
system.cpu.iew.wb_fanout                     0.534402                       # average fanout of values written-back
system.cpu.iew.wb_producers                    338917                       # num instructions producing a value
system.cpu.iew.wb_rate                       1.079195                       # insts written-back per cycle
system.cpu.iew.wb_sent                         522939                       # cumulative count of insts sent to commit
system.cpu.int_regfile_reads                   685587                       # number of integer regfile reads
system.cpu.int_regfile_writes                  355992                       # number of integer regfile writes
system.cpu.ipc                               1.036970                       # IPC: Instructions Per Cycle
system.cpu.ipc_total                         1.036970                       # IPC: Total IPC of All Threads
system.cpu.iq.FU_type_0::No_OpClass                 5      0.00%      0.00% # Type of FU issued
system.cpu.iq.FU_type_0::IntAlu                295604     54.81%     54.81% # Type of FU issued
system.cpu.iq.FU_type_0::IntMult                  501      0.09%     54.90% # Type of FU issued
system.cpu.iq.FU_type_0::IntDiv                     2      0.00%     54.90% # Type of FU issued
system.cpu.iq.FU_type_0::FloatAdd                   0      0.00%     54.90% # Type of FU issued
system.cpu.iq.FU_type_0::FloatCmp                   0      0.00%     54.90% # Type of FU issued
system.cpu.iq.FU_type_0::FloatCvt                   0      0.00%     54.90% # Type of FU issued
system.cpu.iq.FU_type_0::FloatMult                  0      0.00%     54.90% # Type of FU issued
system.cpu.iq.FU_type_0::FloatMultAcc               0      0.00%     54.90% # Type of FU issued
system.cpu.iq.FU_type_0::FloatDiv                   0      0.00%     54.90% # Type of FU issued
system.cpu.iq.FU_type_0::FloatMisc                  1      0.00%     54.90% # Type of FU issued
system.cpu.iq.FU_type_0::FloatSqrt                  0      0.00%     54.90% # Type of FU issued
system.cpu.iq.FU_type_0::SimdAdd                   25      0.00%     54.91% # Type of FU issued
system.cpu.iq.FU_type_0::SimdAddAcc                 0      0.00%     54.91% # Type of FU issued
system.cpu.iq.FU_type_0::SimdAlu                   16      0.00%     54.91% # Type of FU issued
system.cpu.iq.FU_type_0::SimdCmp                   20      0.00%     54.91% # Type of FU issued
system.cpu.iq.FU_type_0::SimdCvt                    0      0.00%     54.91% # Type of FU issued
system.cpu.iq.FU_type_0::SimdMisc                  18      0.00%     54.92% # Type of FU issued
system.cpu.iq.FU_type_0::SimdMult                   0      0.00%     54.92% # Type of FU issued
system.cpu.iq.FU_type_0::SimdMultAcc                0      0.00%     54.92% # Type of FU issued
system.cpu.iq.FU_type_0::SimdShift                  0      0.00%     54.92% # Type of FU issued
system.cpu.iq.FU_type_0::SimdShiftAcc               0      0.00%     54.92% # Type of FU issued
system.cpu.iq.FU_type_0::SimdDiv                    0      0.00%     54.92% # Type of FU issued
system.cpu.iq.FU_type_0::SimdSqrt                   0      0.00%     54.92% # Type of FU issued
system.cpu.iq.FU_type_0::SimdFloatAdd               0      0.00%     54.92% # Type of FU issued
system.cpu.iq.FU_type_0::SimdFloatAlu               0      0.00%     54.92% # Type of FU issued
system.cpu.iq.FU_type_0::SimdFloatCmp               0      0.00%     54.92% # Type of FU issued
system.cpu.iq.FU_type_0::SimdFloatCvt               0      0.00%     54.92% # Type of FU issued
system.cpu.iq.FU_type_0::SimdFloatDiv               0      0.00%     54.92% # Type of FU issued
system.cpu.iq.FU_type_0::SimdFloatMisc              0      0.00%     54.92% # Type of FU issued
system.cpu.iq.FU_type_0::SimdFloatMult              0      0.00%     54.92% # Type of FU issued
system.cpu.iq.FU_type_0::SimdFloatMultAcc            0      0.00%     54.92% # Type of FU issued
system.cpu.iq.FU_type_0::SimdFloatSqrt              0      0.00%     54.92% # Type of FU issued
system.cpu.iq.FU_type_0::SimdReduceAdd              0      0.00%     54.92% # Type of FU issued
system.cpu.iq.FU_type_0::SimdReduceAlu              0      0.00%     54.92% # Type of FU issued
system.cpu.iq.FU_type_0::SimdReduceCmp              0      0.00%     54.92% # Type of FU issued
system.cpu.iq.FU_type_0::SimdFloatReduceAdd            0      0.00%     54.92% # Type of FU issued
system.cpu.iq.FU_type_0::SimdFloatReduceCmp            0      0.00%     54.92% # Type of FU issued
system.cpu.iq.FU_type_0::SimdAes                    0      0.00%     54.92% # Type of FU issued
system.cpu.iq.FU_type_0::SimdAesMix                 0      0.00%     54.92% # Type of FU issued
system.cpu.iq.FU_type_0::SimdSha1Hash               0      0.00%     54.92% # Type of FU issued
system.cpu.iq.FU_type_0::SimdSha1Hash2              0      0.00%     54.92% # Type of FU issued
system.cpu.iq.FU_type_0::SimdSha256Hash             0      0.00%     54.92% # Type of FU issued
system.cpu.iq.FU_type_0::SimdSha256Hash2            0      0.00%     54.92% # Type of FU issued
system.cpu.iq.FU_type_0::SimdShaSigma2              0      0.00%     54.92% # Type of FU issued
system.cpu.iq.FU_type_0::SimdShaSigma3              0      0.00%     54.92% # Type of FU issued
system.cpu.iq.FU_type_0::SimdPredAlu                0      0.00%     54.92% # Type of FU issued
system.cpu.iq.FU_type_0::MemRead               164662     30.53%     85.45% # Type of FU issued
system.cpu.iq.FU_type_0::MemWrite               78498     14.55%    100.00% # Type of FU issued
system.cpu.iq.FU_type_0::FloatMemRead               0      0.00%    100.00% # Type of FU issued
system.cpu.iq.FU_type_0::FloatMemWrite              0      0.00%    100.00% # Type of FU issued
system.cpu.iq.FU_type_0::IprAccess                  0      0.00%    100.00% # Type of FU issued
system.cpu.iq.FU_type_0::InstPrefetch               0      0.00%    100.00% # Type of FU issued
system.cpu.iq.FU_type_0::total                 539352                       # Type of FU issued
system.cpu.iq.fp_alu_accesses                       0                       # Number of floating point alu accesses
system.cpu.iq.fp_inst_queue_reads                   0                       # Number of floating instruction queue reads
system.cpu.iq.fp_inst_queue_wakeup_accesses            0                       # Number of floating instruction queue wakeup accesses
system.cpu.iq.fp_inst_queue_writes                  0                       # Number of floating instruction queue writes
system.cpu.iq.fu_busy_cnt                        8160                       # FU busy when requested
system.cpu.iq.fu_busy_rate                   0.015129                       # FU busy rate (busy events/executed inst)
system.cpu.iq.fu_full::No_OpClass                   0      0.00%      0.00% # attempts to use FU when none available
system.cpu.iq.fu_full::IntAlu                     123      1.51%      1.51% # attempts to use FU when none available
system.cpu.iq.fu_full::IntMult                      0      0.00%      1.51% # attempts to use FU when none available
system.cpu.iq.fu_full::IntDiv                       0      0.00%      1.51% # attempts to use FU when none available
system.cpu.iq.fu_full::FloatAdd                     0      0.00%      1.51% # attempts to use FU when none available
system.cpu.iq.fu_full::FloatCmp                     0      0.00%      1.51% # attempts to use FU when none available
system.cpu.iq.fu_full::FloatCvt                     0      0.00%      1.51% # attempts to use FU when none available
system.cpu.iq.fu_full::FloatMult                    0      0.00%      1.51% # attempts to use FU when none available
system.cpu.iq.fu_full::FloatMultAcc                 0      0.00%      1.51% # attempts to use FU when none available
system.cpu.iq.fu_full::FloatDiv                     0      0.00%      1.51% # attempts to use FU when none available
system.cpu.iq.fu_full::FloatMisc                    0      0.00%      1.51% # attempts to use FU when none available
system.cpu.iq.fu_full::FloatSqrt                    0      0.00%      1.51% # attempts to use FU when none available
system.cpu.iq.fu_full::SimdAdd                      0      0.00%      1.51% # attempts to use FU when none available
system.cpu.iq.fu_full::SimdAddAcc                   0      0.00%      1.51% # attempts to use FU when none available
system.cpu.iq.fu_full::SimdAlu                      1      0.01%      1.52% # attempts to use FU when none available
system.cpu.iq.fu_full::SimdCmp                      2      0.02%      1.54% # attempts to use FU when none available
system.cpu.iq.fu_full::SimdCvt                      0      0.00%      1.54% # attempts to use FU when none available
system.cpu.iq.fu_full::SimdMisc                     0      0.00%      1.54% # attempts to use FU when none available
system.cpu.iq.fu_full::SimdMult                     0      0.00%      1.54% # attempts to use FU when none available
system.cpu.iq.fu_full::SimdMultAcc                  0      0.00%      1.54% # attempts to use FU when none available
system.cpu.iq.fu_full::SimdShift                    0      0.00%      1.54% # attempts to use FU when none available
system.cpu.iq.fu_full::SimdShiftAcc                 0      0.00%      1.54% # attempts to use FU when none available
system.cpu.iq.fu_full::SimdDiv                      0      0.00%      1.54% # attempts to use FU when none available
system.cpu.iq.fu_full::SimdSqrt                     0      0.00%      1.54% # attempts to use FU when none available
system.cpu.iq.fu_full::SimdFloatAdd                 0      0.00%      1.54% # attempts to use FU when none available
system.cpu.iq.fu_full::SimdFloatAlu                 0      0.00%      1.54% # attempts to use FU when none available
system.cpu.iq.fu_full::SimdFloatCmp                 0      0.00%      1.54% # attempts to use FU when none available
system.cpu.iq.fu_full::SimdFloatCvt                 0      0.00%      1.54% # attempts to use FU when none available
system.cpu.iq.fu_full::SimdFloatDiv                 0      0.00%      1.54% # attempts to use FU when none available
system.cpu.iq.fu_full::SimdFloatMisc                0      0.00%      1.54% # attempts to use FU when none available
system.cpu.iq.fu_full::SimdFloatMult                0      0.00%      1.54% # attempts to use FU when none available
system.cpu.iq.fu_full::SimdFloatMultAcc             0      0.00%      1.54% # attempts to use FU when none available
system.cpu.iq.fu_full::SimdFloatSqrt                0      0.00%      1.54% # attempts to use FU when none available
system.cpu.iq.fu_full::SimdReduceAdd                0      0.00%      1.54% # attempts to use FU when none available
system.cpu.iq.fu_full::SimdReduceAlu                0      0.00%      1.54% # attempts to use FU when none available
system.cpu.iq.fu_full::SimdReduceCmp                0      0.00%      1.54% # attempts to use FU when none available
system.cpu.iq.fu_full::SimdFloatReduceAdd            0      0.00%      1.54% # attempts to use FU when none available
system.cpu.iq.fu_full::SimdFloatReduceCmp            0      0.00%      1.54% # attempts to use FU when none available
system.cpu.iq.fu_full::SimdAes                      0      0.00%      1.54% # attempts to use FU when none available
system.cpu.iq.fu_full::SimdAesMix                   0      0.00%      1.54% # attempts to use FU when none available
system.cpu.iq.fu_full::SimdSha1Hash                 0      0.00%      1.54% # attempts to use FU when none available
system.cpu.iq.fu_full::SimdSha1Hash2                0      0.00%      1.54% # attempts to use FU when none available
system.cpu.iq.fu_full::SimdSha256Hash               0      0.00%      1.54% # attempts to use FU when none available
system.cpu.iq.fu_full::SimdSha256Hash2              0      0.00%      1.54% # attempts to use FU when none available
system.cpu.iq.fu_full::SimdShaSigma2                0      0.00%      1.54% # attempts to use FU when none available
system.cpu.iq.fu_full::SimdShaSigma3                0      0.00%      1.54% # attempts to use FU when none available
system.cpu.iq.fu_full::SimdPredAlu                  0      0.00%      1.54% # attempts to use FU when none available
system.cpu.iq.fu_full::MemRead                   7959     97.54%     99.08% # attempts to use FU when none available
system.cpu.iq.fu_full::MemWrite                    75      0.92%    100.00% # attempts to use FU when none available
system.cpu.iq.fu_full::FloatMemRead                 0      0.00%    100.00% # attempts to use FU when none available
system.cpu.iq.fu_full::FloatMemWrite                0      0.00%    100.00% # attempts to use FU when none available
system.cpu.iq.fu_full::IprAccess                    0      0.00%    100.00% # attempts to use FU when none available
system.cpu.iq.fu_full::InstPrefetch                 0      0.00%    100.00% # attempts to use FU when none available
system.cpu.iq.int_alu_accesses                 547199                       # Number of integer alu accesses
system.cpu.iq.int_inst_queue_reads            1537620                       # Number of integer instruction queue reads
system.cpu.iq.int_inst_queue_wakeup_accesses       520088                       # Number of integer instruction queue wakeup accesses
system.cpu.iq.int_inst_queue_writes            551651                       # Number of integer instruction queue writes
system.cpu.iq.iqInstsAdded                     527890                       # Number of instructions added to the IQ (excludes non-spec)
system.cpu.iq.iqInstsIssued                    539352                       # Number of instructions issued
system.cpu.iq.iqNonSpecInstsAdded                  33                       # Number of non-speculative instructions added to the IQ
system.cpu.iq.iqSquashedInstsExamined           24116                       # Number of squashed instructions iterated over during squash; mainly for profiling
system.cpu.iq.iqSquashedInstsIssued                56                       # Number of squashed instructions issued
system.cpu.iq.iqSquashedNonSpecRemoved              7                       # Number of squashed non-spec instructions that were removed
system.cpu.iq.iqSquashedOperandsExamined        15028                       # Number of squashed operands that are examined and possibly removed from graph
system.cpu.iq.issued_per_cycle::samples        451325                       # Number of insts issued each cycle
system.cpu.iq.issued_per_cycle::mean         1.195041                       # Number of insts issued each cycle
system.cpu.iq.issued_per_cycle::stdev        2.102010                       # Number of insts issued each cycle
system.cpu.iq.issued_per_cycle::underflows            0      0.00%      0.00% # Number of insts issued each cycle
system.cpu.iq.issued_per_cycle::0              312694     69.28%     69.28% # Number of insts issued each cycle
system.cpu.iq.issued_per_cycle::1               20244      4.49%     73.77% # Number of insts issued each cycle
system.cpu.iq.issued_per_cycle::2               17623      3.90%     77.67% # Number of insts issued each cycle
system.cpu.iq.issued_per_cycle::3               22255      4.93%     82.60% # Number of insts issued each cycle
system.cpu.iq.issued_per_cycle::4               27482      6.09%     88.69% # Number of insts issued each cycle
system.cpu.iq.issued_per_cycle::5               25400      5.63%     94.32% # Number of insts issued each cycle
system.cpu.iq.issued_per_cycle::6                2766      0.61%     94.93% # Number of insts issued each cycle
system.cpu.iq.issued_per_cycle::7               19315      4.28%     99.21% # Number of insts issued each cycle
system.cpu.iq.issued_per_cycle::8                3546      0.79%    100.00% # Number of insts issued each cycle
system.cpu.iq.issued_per_cycle::overflows            0      0.00%    100.00% # Number of insts issued each cycle
system.cpu.iq.issued_per_cycle::min_value            0                       # Number of insts issued each cycle
system.cpu.iq.issued_per_cycle::max_value            8                       # Number of insts issued each cycle
system.cpu.iq.issued_per_cycle::total          451325                       # Number of insts issued each cycle
system.cpu.iq.rate                           1.118574                       # Inst issue rate
system.cpu.iq.vec_alu_accesses                    308                       # Number of vector alu accesses
system.cpu.iq.vec_inst_queue_reads                619                       # Number of vector instruction queue reads
system.cpu.iq.vec_inst_queue_wakeup_accesses          276                       # Number of vector instruction queue wakeup accesses
system.cpu.iq.vec_inst_queue_writes               424                       # Number of vector instruction queue writes
system.cpu.itb.accesses                             0                       # DTB accesses
system.cpu.itb.align_faults                         0                       # Number of TLB faults due to alignment restrictions
system.cpu.itb.domain_faults                        0                       # Number of TLB faults due to domain restrictions
system.cpu.itb.flush_entries                        0                       # Number of entries that have been flushed from TLB
system.cpu.itb.flush_tlb                            0                       # Number of times complete TLB was flushed
system.cpu.itb.flush_tlb_asid                       0                       # Number of times TLB was flushed by ASID
system.cpu.itb.flush_tlb_mva                        0                       # Number of times TLB was flushed by MVA
system.cpu.itb.flush_tlb_mva_asid                   0                       # Number of times TLB was flushed by MVA & ASID
system.cpu.itb.hits                                 0                       # DTB hits
system.cpu.itb.inst_accesses                        0                       # ITB inst accesses
system.cpu.itb.inst_hits                            0                       # ITB inst hits
system.cpu.itb.inst_misses                          0                       # ITB inst misses
system.cpu.itb.misses                               0                       # DTB misses
system.cpu.itb.perms_faults                         0                       # Number of TLB faults due to permissions restrictions
system.cpu.itb.prefetch_faults                      0                       # Number of TLB faults due to prefetch
system.cpu.itb.read_accesses                        0                       # DTB read accesses
system.cpu.itb.read_hits                            0                       # DTB read hits
system.cpu.itb.read_misses                          0                       # DTB read misses
system.cpu.itb.stage2_mmu.stage2_tlb.accesses            0                       # DTB accesses
system.cpu.itb.stage2_mmu.stage2_tlb.align_faults            0                       # Number of TLB faults due to alignment restrictions
system.cpu.itb.stage2_mmu.stage2_tlb.domain_faults            0                       # Number of TLB faults due to domain restrictions
system.cpu.itb.stage2_mmu.stage2_tlb.flush_entries            0                       # Number of entries that have been flushed from TLB
system.cpu.itb.stage2_mmu.stage2_tlb.flush_tlb            0                       # Number of times complete TLB was flushed
system.cpu.itb.stage2_mmu.stage2_tlb.flush_tlb_asid            0                       # Number of times TLB was flushed by ASID
system.cpu.itb.stage2_mmu.stage2_tlb.flush_tlb_mva            0                       # Number of times TLB was flushed by MVA
system.cpu.itb.stage2_mmu.stage2_tlb.flush_tlb_mva_asid            0                       # Number of times TLB was flushed by MVA & ASID
system.cpu.itb.stage2_mmu.stage2_tlb.hits            0                       # DTB hits
system.cpu.itb.stage2_mmu.stage2_tlb.inst_accesses            0                       # ITB inst accesses
system.cpu.itb.stage2_mmu.stage2_tlb.inst_hits            0                       # ITB inst hits
system.cpu.itb.stage2_mmu.stage2_tlb.inst_misses            0                       # ITB inst misses
system.cpu.itb.stage2_mmu.stage2_tlb.misses            0                       # DTB misses
system.cpu.itb.stage2_mmu.stage2_tlb.perms_faults            0                       # Number of TLB faults due to permissions restrictions
system.cpu.itb.stage2_mmu.stage2_tlb.prefetch_faults            0                       # Number of TLB faults due to prefetch
system.cpu.itb.stage2_mmu.stage2_tlb.read_accesses            0                       # DTB read accesses
system.cpu.itb.stage2_mmu.stage2_tlb.read_hits            0                       # DTB read hits
system.cpu.itb.stage2_mmu.stage2_tlb.read_misses            0                       # DTB read misses
system.cpu.itb.stage2_mmu.stage2_tlb.walker.walkRequestOrigin_Requested::Data            0                       # Table walker requests started/completed, data/inst
system.cpu.itb.stage2_mmu.stage2_tlb.walker.walkRequestOrigin_Requested::Inst            0                       # Table walker requests started/completed, data/inst
system.cpu.itb.stage2_mmu.stage2_tlb.walker.walkRequestOrigin_Requested::total            0                       # Table walker requests started/completed, data/inst
system.cpu.itb.stage2_mmu.stage2_tlb.walker.walkRequestOrigin_Completed::Data            0                       # Table walker requests started/completed, data/inst
system.cpu.itb.stage2_mmu.stage2_tlb.walker.walkRequestOrigin_Completed::Inst            0                       # Table walker requests started/completed, data/inst
system.cpu.itb.stage2_mmu.stage2_tlb.walker.walkRequestOrigin_Completed::total            0                       # Table walker requests started/completed, data/inst
system.cpu.itb.stage2_mmu.stage2_tlb.walker.walkRequestOrigin::total            0                       # Table walker requests started/completed, data/inst
system.cpu.itb.stage2_mmu.stage2_tlb.walker.walks            0                       # Table walker walks requested
system.cpu.itb.stage2_mmu.stage2_tlb.write_accesses            0                       # DTB write accesses
system.cpu.itb.stage2_mmu.stage2_tlb.write_hits            0                       # DTB write hits
system.cpu.itb.stage2_mmu.stage2_tlb.write_misses            0                       # DTB write misses
system.cpu.itb.walker.walkRequestOrigin_Requested::Data            0                       # Table walker requests started/completed, data/inst
system.cpu.itb.walker.walkRequestOrigin_Requested::Inst            0                       # Table walker requests started/completed, data/inst
system.cpu.itb.walker.walkRequestOrigin_Requested::total            0                       # Table walker requests started/completed, data/inst
system.cpu.itb.walker.walkRequestOrigin_Completed::Data            0                       # Table walker requests started/completed, data/inst
system.cpu.itb.walker.walkRequestOrigin_Completed::Inst            0                       # Table walker requests started/completed, data/inst
system.cpu.itb.walker.walkRequestOrigin_Completed::total            0                       # Table walker requests started/completed, data/inst
system.cpu.itb.walker.walkRequestOrigin::total            0                       # Table walker requests started/completed, data/inst
system.cpu.itb.walker.walks                         0                       # Table walker walks requested
system.cpu.itb.write_accesses                       0                       # DTB write accesses
system.cpu.itb.write_hits                           0                       # DTB write hits
system.cpu.itb.write_misses                         0                       # DTB write misses
system.cpu.memDep0.conflictingLoads              2492                       # Number of conflicting loads.
system.cpu.memDep0.conflictingStores             2394                       # Number of conflicting stores.
system.cpu.memDep0.insertedLoads               149919                       # Number of loads inserted to the mem dependence unit.
system.cpu.memDep0.insertedStores               78904                       # Number of stores inserted to the mem dependence unit.
system.cpu.misc_regfile_reads                  435580                       # number of misc regfile reads
system.cpu.misc_regfile_writes                     65                       # number of misc regfile writes
system.cpu.numCycles                           482178                       # number of cpu cycles simulated
system.cpu.numWorkItemsCompleted                    0                       # number of work items this cpu completed
system.cpu.numWorkItemsStarted                      0                       # number of work items this cpu started
system.cpu.rename.BlockCycles                   21108                       # Number of cycles rename is blocking
system.cpu.rename.CommittedMaps                583420                       # Number of HB maps that are committed
system.cpu.rename.IQFullEvents                   3317                       # Number of times rename has blocked due to IQ full
system.cpu.rename.IdleCycles                    39514                       # Number of cycles rename is idle
system.cpu.rename.LQFullEvents                   3789                       # Number of times rename has blocked due to LQ full
system.cpu.rename.ROBFullEvents                    33                       # Number of times rename has blocked due to ROB full
system.cpu.rename.RenameLookups                945402                       # Number of register rename lookups that rename has made
system.cpu.rename.RenamedInsts                 531386                       # Number of instructions processed by rename
system.cpu.rename.RenamedOperands              614919                       # Number of destination operands rename has renamed
system.cpu.rename.RunCycles                     66726                       # Number of cycles rename is running
system.cpu.rename.SQFullEvents                 311187                       # Number of times rename has blocked due to SQ full
system.cpu.rename.SquashCycles                    828                       # Number of cycles rename is squashing
system.cpu.rename.UnblockCycles                318950                       # Number of cycles rename is unblocking
system.cpu.rename.UndoneMaps                    31422                       # Number of HB maps that are undone due to squashing
system.cpu.rename.int_rename_lookups           679556                       # Number of integer rename lookups
system.cpu.rename.serializeStallCycles           4199                       # count of cycles rename stalled for serializing inst
system.cpu.rename.serializingInsts                 96                       # count of serializing insts renamed
system.cpu.rename.skidInsts                    107617                       # count of insts added to the skid buffer
system.cpu.rename.tempSerializingInsts             32                       # count of temporary serializing insts renamed
system.cpu.rename.vec_rename_lookups              409                       # Number of vector rename lookups
system.cpu.rob.rob_reads                       963543                       # The number of ROB reads
system.cpu.rob.rob_writes                     1059798                       # The number of ROB writes
system.cpu.timesIdled                             311                       # Number of times that the entire CPU went into an idle state and unscheduled itself
system.cpu.vec_regfile_reads                      318                       # number of vector regfile reads
system.cpu.vec_regfile_writes                      92                       # number of vector regfile writes
system.cpu.workload.numSyscalls                     9                       # Number of system calls
system.membus.snoop_filter.hit_multi_requests            0                       # Number of requests hitting in the snoop filter with multiple (>1) holders of the requested data.
system.membus.snoop_filter.hit_multi_snoops            0                       # Number of snoops hitting in the snoop filter with multiple (>1) holders of the requested data.
system.membus.snoop_filter.hit_single_requests            0                       # Number of requests hitting in the snoop filter with a single holder of the requested data.
system.membus.snoop_filter.hit_single_snoops            0                       # Number of snoops hitting in the snoop filter with a single holder of the requested data.
system.membus.snoop_filter.tot_requests         11708                       # Total number of requests made to the snoop filter.
system.membus.snoop_filter.tot_snoops               0                       # Total number of snoops made to the snoop filter.
system.tol2bus.snoop_filter.hit_multi_requests            1                       # Number of requests hitting in the snoop filter with multiple (>1) holders of the requested data.
system.tol2bus.snoop_filter.hit_multi_snoops            0                       # Number of snoops hitting in the snoop filter with multiple (>1) holders of the requested data.
system.tol2bus.snoop_filter.hit_single_requests        10918                       # Number of requests hitting in the snoop filter with a single holder of the requested data.
system.tol2bus.snoop_filter.hit_single_snoops            0                       # Number of snoops hitting in the snoop filter with a single holder of the requested data.
system.tol2bus.snoop_filter.tot_requests        22685                       # Total number of requests made to the snoop filter.
system.tol2bus.snoop_filter.tot_snoops              0                       # Total number of snoops made to the snoop filter.
system.membus.trans_dist::ReadResp                464                       # Transaction distribution
system.membus.trans_dist::ReadExReq              8419                       # Transaction distribution
system.membus.trans_dist::ReadExResp             8419                       # Transaction distribution
system.membus.trans_dist::ReadSharedReq           464                       # Transaction distribution
system.membus.trans_dist::InvalidateReq          2825                       # Transaction distribution
system.membus.pkt_count_system.l2.mem_side::system.mem_ctrls.port        20591                       # Packet count per connected master and slave (bytes)
system.membus.pkt_count::total                  20591                       # Packet count per connected master and slave (bytes)
system.membus.pkt_size_system.l2.mem_side::system.mem_ctrls.port       568512                       # Cumulative packet size per connected master and slave (bytes)
system.membus.pkt_size::total                  568512                       # Cumulative packet size per connected master and slave (bytes)
system.membus.snoops                                0                       # Total snoops (count)
system.membus.snoopTraffic                          0                       # Total snoop traffic (bytes)
system.membus.snoop_fanout::samples             11708                       # Request fanout histogram
system.membus.snoop_fanout::mean                    0                       # Request fanout histogram
system.membus.snoop_fanout::stdev                   0                       # Request fanout histogram
system.membus.snoop_fanout::underflows              0      0.00%      0.00% # Request fanout histogram
system.membus.snoop_fanout::0                   11708    100.00%    100.00% # Request fanout histogram
system.membus.snoop_fanout::1                       0      0.00%    100.00% # Request fanout histogram
system.membus.snoop_fanout::overflows               0      0.00%    100.00% # Request fanout histogram
system.membus.snoop_fanout::min_value               0                       # Request fanout histogram
system.membus.snoop_fanout::max_value               0                       # Request fanout histogram
system.membus.snoop_fanout::total               11708                       # Request fanout histogram
system.membus.reqLayer0.occupancy            15938000                       # Layer occupancy (ticks)
system.membus.reqLayer0.utilization               6.6                       # Layer utilization (%)
system.membus.respLayer1.occupancy           45405500                       # Layer occupancy (ticks)
system.membus.respLayer1.utilization             18.8                       # Layer utilization (%)
system.membus.power_state.pwrStateResidencyTicks::UNDEFINED    241088500                       # Cumulative time (in ticks) in various power states
system.tol2bus.trans_dist::ReadResp               504                       # Transaction distribution
system.tol2bus.trans_dist::WritebackDirty        10790                       # Transaction distribution
system.tol2bus.trans_dist::WritebackClean           51                       # Transaction distribution
system.tol2bus.trans_dist::CleanEvict              77                       # Transaction distribution
system.tol2bus.trans_dist::ReadExReq             8438                       # Transaction distribution
system.tol2bus.trans_dist::ReadExResp            8435                       # Transaction distribution
system.tol2bus.trans_dist::ReadCleanReq           385                       # Transaction distribution
system.tol2bus.trans_dist::ReadSharedReq          119                       # Transaction distribution
system.tol2bus.trans_dist::InvalidateReq         2825                       # Transaction distribution
system.tol2bus.trans_dist::InvalidateResp         2825                       # Transaction distribution
system.tol2bus.pkt_count_system.cpu.icache.mem_side::system.l2.cpu_side          821                       # Packet count per connected master and slave (bytes)
system.tol2bus.pkt_count_system.cpu.dcache.mem_side::system.l2.cpu_side        33628                       # Packet count per connected master and slave (bytes)
system.tol2bus.pkt_count::total                 34449                       # Packet count per connected master and slave (bytes)
system.tol2bus.pkt_size_system.cpu.icache.mem_side::system.l2.cpu_side        27904                       # Cumulative packet size per connected master and slave (bytes)
system.tol2bus.pkt_size_system.cpu.dcache.mem_side::system.l2.cpu_side      1238016                       # Cumulative packet size per connected master and slave (bytes)
system.tol2bus.pkt_size::total                1265920                       # Cumulative packet size per connected master and slave (bytes)
system.tol2bus.snoops                               0                       # Total snoops (count)
system.tol2bus.snoopTraffic                         0                       # Total snoop traffic (bytes)
system.tol2bus.snoop_fanout::samples            11767                       # Request fanout histogram
system.tol2bus.snoop_fanout::mean            0.000085                       # Request fanout histogram
system.tol2bus.snoop_fanout::stdev           0.009219                       # Request fanout histogram
system.tol2bus.snoop_fanout::underflows             0      0.00%      0.00% # Request fanout histogram
system.tol2bus.snoop_fanout::0                  11766     99.99%     99.99% # Request fanout histogram
system.tol2bus.snoop_fanout::1                      1      0.01%    100.00% # Request fanout histogram
system.tol2bus.snoop_fanout::2                      0      0.00%    100.00% # Request fanout histogram
system.tol2bus.snoop_fanout::overflows              0      0.00%    100.00% # Request fanout histogram
system.tol2bus.snoop_fanout::min_value              0                       # Request fanout histogram
system.tol2bus.snoop_fanout::max_value              1                       # Request fanout histogram
system.tol2bus.snoop_fanout::total              11767                       # Request fanout histogram
system.tol2bus.reqLayer0.occupancy           22183500                       # Layer occupancy (ticks)
system.tol2bus.reqLayer0.utilization              9.2                       # Layer utilization (%)
system.tol2bus.respLayer1.occupancy          14243500                       # Layer occupancy (ticks)
system.tol2bus.respLayer1.utilization             5.9                       # Layer utilization (%)
system.tol2bus.respLayer0.occupancy            577500                       # Layer occupancy (ticks)
system.tol2bus.respLayer0.utilization             0.2                       # Layer utilization (%)
system.tol2bus.power_state.pwrStateResidencyTicks::UNDEFINED    241088500                       # Cumulative time (in ticks) in various power states
system.voltage_domain.voltage                       1                       # Voltage in Volts
system.clk_domain.clock                          1000                       # Clock period in ticks
system.l2.demand_hits::.cpu.inst                    8                       # number of demand (read+write) hits
system.l2.demand_hits::.cpu.data                   48                       # number of demand (read+write) hits
system.l2.demand_hits::total                       56                       # number of demand (read+write) hits
system.l2.overall_hits::.cpu.inst                   8                       # number of overall hits
system.l2.overall_hits::.cpu.data                  48                       # number of overall hits
system.l2.overall_hits::total                      56                       # number of overall hits
system.l2.demand_misses::.cpu.inst                377                       # number of demand (read+write) misses
system.l2.demand_misses::.cpu.data               8509                       # number of demand (read+write) misses
system.l2.demand_misses::total                   8886                       # number of demand (read+write) misses
system.l2.overall_misses::.cpu.inst               377                       # number of overall misses
system.l2.overall_misses::.cpu.data              8509                       # number of overall misses
system.l2.overall_misses::total                  8886                       # number of overall misses
system.l2.demand_miss_latency::.cpu.inst     30084500                       # number of demand (read+write) miss cycles
system.l2.demand_miss_latency::.cpu.data    646495500                       # number of demand (read+write) miss cycles
system.l2.demand_miss_latency::total        676580000                       # number of demand (read+write) miss cycles
system.l2.overall_miss_latency::.cpu.inst     30084500                       # number of overall miss cycles
system.l2.overall_miss_latency::.cpu.data    646495500                       # number of overall miss cycles
system.l2.overall_miss_latency::total       676580000                       # number of overall miss cycles
system.l2.demand_accesses::.cpu.inst              385                       # number of demand (read+write) accesses
system.l2.demand_accesses::.cpu.data             8557                       # number of demand (read+write) accesses
system.l2.demand_accesses::total                 8942                       # number of demand (read+write) accesses
system.l2.overall_accesses::.cpu.inst             385                       # number of overall (read+write) accesses
system.l2.overall_accesses::.cpu.data            8557                       # number of overall (read+write) accesses
system.l2.overall_accesses::total                8942                       # number of overall (read+write) accesses
system.l2.demand_miss_rate::.cpu.inst        0.979221                       # miss rate for demand accesses
system.l2.demand_miss_rate::.cpu.data        0.994391                       # miss rate for demand accesses
system.l2.demand_miss_rate::total            0.993737                       # miss rate for demand accesses
system.l2.overall_miss_rate::.cpu.inst       0.979221                       # miss rate for overall accesses
system.l2.overall_miss_rate::.cpu.data       0.994391                       # miss rate for overall accesses
[...]
system.cpu.icache.tags.occ_task_id_percent::1024     0.652344                       # Percentage of cache occupancy per task id
system.cpu.icache.tags.tag_accesses             30895                       # Number of tag accesses
system.cpu.icache.tags.data_accesses            30895                       # Number of data accesses
system.cpu.icache.tags.power_state.pwrStateResidencyTicks::UNDEFINED    241088500                       # Cumulative time (in ticks) in various power states
system.cpu.dtb.walker.power_state.pwrStateResidencyTicks::UNDEFINED    241088500                       # Cumulative time (in ticks) in various power states
system.cpu.dtb.stage2_mmu.stage2_tlb.walker.power_state.pwrStateResidencyTicks::UNDEFINED    241088500                       # Cumulative time (in ticks) in various power states
system.cpu.itb.walker.power_state.pwrStateResidencyTicks::UNDEFINED    241088500                       # Cumulative time (in ticks) in various power states
system.cpu.itb.stage2_mmu.stage2_tlb.walker.power_state.pwrStateResidencyTicks::UNDEFINED    241088500                       # Cumulative time (in ticks) in various power states
system.cpu.dcache.demand_hits::.cpu.data       154911                       # number of demand (read+write) hits
system.cpu.dcache.demand_hits::total           154911                       # number of demand (read+write) hits
system.cpu.dcache.overall_hits::.cpu.data       154916                       # number of overall hits
system.cpu.dcache.overall_hits::total          154916                       # number of overall hits
system.cpu.dcache.demand_misses::.cpu.data        69562                       # number of demand (read+write) misses
system.cpu.dcache.demand_misses::total          69562                       # number of demand (read+write) misses
system.cpu.dcache.overall_misses::.cpu.data        69564                       # number of overall misses
system.cpu.dcache.overall_misses::total         69564                       # number of overall misses
system.cpu.dcache.demand_miss_latency::.cpu.data   4335251869                       # number of demand (read+write) miss cycles
system.cpu.dcache.demand_miss_latency::total   4335251869                       # number of demand (read+write) miss cycles
system.cpu.dcache.overall_miss_latency::.cpu.data   4335251869                       # number of overall miss cycles
system.cpu.dcache.overall_miss_latency::total   4335251869                       # number of overall miss cycles
system.cpu.dcache.demand_accesses::.cpu.data       224473                       # number of demand (read+write) accesses
system.cpu.dcache.demand_accesses::total       224473                       # number of demand (read+write) accesses
system.cpu.dcache.overall_accesses::.cpu.data       224480                       # number of overall (read+write) accesses
system.cpu.dcache.overall_accesses::total       224480                       # number of overall (read+write) accesses
system.cpu.dcache.demand_miss_rate::.cpu.data     0.309890                       # miss rate for demand accesses
system.cpu.dcache.demand_miss_rate::total     0.309890                       # miss rate for demand accesses
system.cpu.dcache.overall_miss_rate::.cpu.data     0.309890                       # miss rate for overall accesses
system.cpu.dcache.overall_miss_rate::total     0.309890                       # miss rate for overall accesses
system.cpu.dcache.demand_avg_miss_latency::.cpu.data 62322.128015                       # average overall miss latency
system.cpu.dcache.demand_avg_miss_latency::total 62322.128015                       # average overall miss latency
system.cpu.dcache.overall_avg_miss_latency::.cpu.data 62320.336223                       # average overall miss latency
system.cpu.dcache.overall_avg_miss_latency::total 62320.336223                       # average overall miss latency
system.cpu.dcache.blocked_cycles::no_mshrs       297663                       # number of cycles access was blocked
system.cpu.dcache.blocked_cycles::no_targets            0                       # number of cycles access was blocked
system.cpu.dcache.blocked::no_mshrs              5493                       # number of cycles access was blocked
system.cpu.dcache.blocked::no_targets               0                       # number of cycles access was blocked
system.cpu.dcache.avg_blocked_cycles::no_mshrs    54.189514                       # average number of cycles each access was blocked
system.cpu.dcache.avg_blocked_cycles::no_targets          nan                       # average number of cycles each access was blocked
system.cpu.dcache.writebacks::.writebacks        10790                       # number of writebacks
system.cpu.dcache.writebacks::total             10790                       # number of writebacks
system.cpu.dcache.demand_mshr_hits::.cpu.data        58182                       # number of demand (read+write) MSHR hits
system.cpu.dcache.demand_mshr_hits::total        58182                       # number of demand (read+write) MSHR hits
system.cpu.dcache.overall_mshr_hits::.cpu.data        58182                       # number of overall MSHR hits
system.cpu.dcache.overall_mshr_hits::total        58182                       # number of overall MSHR hits
system.cpu.dcache.demand_mshr_misses::.cpu.data        11380                       # number of demand (read+write) MSHR misses
system.cpu.dcache.demand_mshr_misses::total        11380                       # number of demand (read+write) MSHR misses
system.cpu.dcache.overall_mshr_misses::.cpu.data        11382                       # number of overall MSHR misses
system.cpu.dcache.overall_mshr_misses::total        11382                       # number of overall MSHR misses
system.cpu.dcache.demand_mshr_miss_latency::.cpu.data    750689510                       # number of demand (read+write) MSHR miss cycles
system.cpu.dcache.demand_mshr_miss_latency::total    750689510                       # number of demand (read+write) MSHR miss cycles
system.cpu.dcache.overall_mshr_miss_latency::.cpu.data    750888510                       # number of overall MSHR miss cycles
system.cpu.dcache.overall_mshr_miss_latency::total    750888510                       # number of overall MSHR miss cycles
system.cpu.dcache.demand_mshr_miss_rate::.cpu.data     0.050697                       # mshr miss rate for demand accesses
system.cpu.dcache.demand_mshr_miss_rate::total     0.050697                       # mshr miss rate for demand accesses
system.cpu.dcache.overall_mshr_miss_rate::.cpu.data     0.050704                       # mshr miss rate for overall accesses
system.cpu.dcache.overall_mshr_miss_rate::total     0.050704                       # mshr miss rate for overall accesses
system.cpu.dcache.demand_avg_mshr_miss_latency::.cpu.data 65965.686292                       # average overall mshr miss latency
system.cpu.dcache.demand_avg_mshr_miss_latency::total 65965.686292                       # average overall mshr miss latency
system.cpu.dcache.overall_avg_mshr_miss_latency::.cpu.data 65971.578809                       # average overall mshr miss latency
system.cpu.dcache.overall_avg_mshr_miss_latency::total 65971.578809                       # average overall mshr miss latency
system.cpu.dcache.replacements                  10867                       # number of replacements
system.cpu.dcache.ReadReq_hits::.cpu.data       148478                       # number of ReadReq hits
system.cpu.dcache.ReadReq_hits::total          148478                       # number of ReadReq hits
system.cpu.dcache.ReadReq_misses::.cpu.data          342                       # number of ReadReq misses
system.cpu.dcache.ReadReq_misses::total           342                       # number of ReadReq misses
system.cpu.dcache.ReadReq_miss_latency::.cpu.data     17487500                       # number of ReadReq miss cycles
system.cpu.dcache.ReadReq_miss_latency::total     17487500                       # number of ReadReq miss cycles
system.cpu.dcache.ReadReq_accesses::.cpu.data       148820                       # number of ReadReq accesses(hits+misses)
system.cpu.dcache.ReadReq_accesses::total       148820                       # number of ReadReq accesses(hits+misses)
system.cpu.dcache.ReadReq_miss_rate::.cpu.data     0.002298                       # miss rate for ReadReq accesses
system.cpu.dcache.ReadReq_miss_rate::total     0.002298                       # miss rate for ReadReq accesses
system.cpu.dcache.ReadReq_avg_miss_latency::.cpu.data 51133.040936                       # average ReadReq miss latency
system.cpu.dcache.ReadReq_avg_miss_latency::total 51133.040936                       # average ReadReq miss latency
system.cpu.dcache.ReadReq_mshr_hits::.cpu.data          225                       # number of ReadReq MSHR hits
system.cpu.dcache.ReadReq_mshr_hits::total          225                       # number of ReadReq MSHR hits
system.cpu.dcache.ReadReq_mshr_misses::.cpu.data          117                       # number of ReadReq MSHR misses
system.cpu.dcache.ReadReq_mshr_misses::total          117                       # number of ReadReq MSHR misses
system.cpu.dcache.ReadReq_mshr_miss_latency::.cpu.data      8117000                       # number of ReadReq MSHR miss cycles
system.cpu.dcache.ReadReq_mshr_miss_latency::total      8117000                       # number of ReadReq MSHR miss cycles
system.cpu.dcache.ReadReq_mshr_miss_rate::.cpu.data     0.000786                       # mshr miss rate for ReadReq accesses
system.cpu.dcache.ReadReq_mshr_miss_rate::total     0.000786                       # mshr miss rate for ReadReq accesses
system.cpu.dcache.ReadReq_avg_mshr_miss_latency::.cpu.data 69376.068376                       # average ReadReq mshr miss latency
system.cpu.dcache.ReadReq_avg_mshr_miss_latency::total 69376.068376                       # average ReadReq mshr miss latency
system.cpu.dcache.WriteReq_hits::.cpu.data         6433                       # number of WriteReq hits
system.cpu.dcache.WriteReq_hits::total           6433                       # number of WriteReq hits
system.cpu.dcache.WriteReq_misses::.cpu.data        66397                       # number of WriteReq misses
system.cpu.dcache.WriteReq_misses::total        66397                       # number of WriteReq misses
system.cpu.dcache.WriteReq_miss_latency::.cpu.data   4225005353                       # number of WriteReq miss cycles
system.cpu.dcache.WriteReq_miss_latency::total   4225005353                       # number of WriteReq miss cycles
system.cpu.dcache.WriteReq_accesses::.cpu.data        72830                       # number of WriteReq accesses(hits+misses)
system.cpu.dcache.WriteReq_accesses::total        72830                       # number of WriteReq accesses(hits+misses)
system.cpu.dcache.WriteReq_miss_rate::.cpu.data     0.911671                       # miss rate for WriteReq accesses
system.cpu.dcache.WriteReq_miss_rate::total     0.911671                       # miss rate for WriteReq accesses
system.cpu.dcache.WriteReq_avg_miss_latency::.cpu.data 63632.473651                       # average WriteReq miss latency
system.cpu.dcache.WriteReq_avg_miss_latency::total 63632.473651                       # average WriteReq miss latency
system.cpu.dcache.WriteReq_mshr_hits::.cpu.data        57957                       # number of WriteReq MSHR hits
system.cpu.dcache.WriteReq_mshr_hits::total        57957                       # number of WriteReq MSHR hits
system.cpu.dcache.WriteReq_mshr_misses::.cpu.data         8440                       # number of WriteReq MSHR misses
system.cpu.dcache.WriteReq_mshr_misses::total         8440                       # number of WriteReq MSHR misses
system.cpu.dcache.WriteReq_mshr_miss_latency::.cpu.data    652636494                       # number of WriteReq MSHR miss cycles
system.cpu.dcache.WriteReq_mshr_miss_latency::total    652636494                       # number of WriteReq MSHR miss cycles
system.cpu.dcache.WriteReq_mshr_miss_rate::.cpu.data     0.115886                       # mshr miss rate for WriteReq accesses
system.cpu.dcache.WriteReq_mshr_miss_rate::total     0.115886                       # mshr miss rate for WriteReq accesses
system.cpu.dcache.WriteReq_avg_mshr_miss_latency::.cpu.data 77326.598815                       # average WriteReq mshr miss latency
system.cpu.dcache.WriteReq_avg_mshr_miss_latency::total 77326.598815                       # average WriteReq mshr miss latency
system.cpu.dcache.SoftPFReq_hits::.cpu.data            5                       # number of SoftPFReq hits
system.cpu.dcache.SoftPFReq_hits::total             5                       # number of SoftPFReq hits
system.cpu.dcache.SoftPFReq_misses::.cpu.data            2                       # number of SoftPFReq misses
system.cpu.dcache.SoftPFReq_misses::total            2                       # number of SoftPFReq misses
system.cpu.dcache.SoftPFReq_accesses::.cpu.data            7                       # number of SoftPFReq accesses(hits+misses)
system.cpu.dcache.SoftPFReq_accesses::total            7                       # number of SoftPFReq accesses(hits+misses)
system.cpu.dcache.SoftPFReq_miss_rate::.cpu.data     0.285714                       # miss rate for SoftPFReq accesses
system.cpu.dcache.SoftPFReq_miss_rate::total     0.285714                       # miss rate for SoftPFReq accesses
system.cpu.dcache.SoftPFReq_mshr_misses::.cpu.data            2                       # number of SoftPFReq MSHR misses
system.cpu.dcache.SoftPFReq_mshr_misses::total            2                       # number of SoftPFReq MSHR misses
system.cpu.dcache.SoftPFReq_mshr_miss_latency::.cpu.data       199000                       # number of SoftPFReq MSHR miss cycles
system.cpu.dcache.SoftPFReq_mshr_miss_latency::total       199000                       # number of SoftPFReq MSHR miss cycles
system.cpu.dcache.SoftPFReq_mshr_miss_rate::.cpu.data     0.285714                       # mshr miss rate for SoftPFReq accesses
system.cpu.dcache.SoftPFReq_mshr_miss_rate::total     0.285714                       # mshr miss rate for SoftPFReq accesses
system.cpu.dcache.SoftPFReq_avg_mshr_miss_latency::.cpu.data        99500                       # average SoftPFReq mshr miss latency
system.cpu.dcache.SoftPFReq_avg_mshr_miss_latency::total        99500                       # average SoftPFReq mshr miss latency
system.cpu.dcache.WriteLineReq_misses::.cpu.data         2823                       # number of WriteLineReq misses
system.cpu.dcache.WriteLineReq_misses::total         2823                       # number of WriteLineReq misses
system.cpu.dcache.WriteLineReq_miss_latency::.cpu.data     92759016                       # number of WriteLineReq miss cycles
system.cpu.dcache.WriteLineReq_miss_latency::total     92759016                       # number of WriteLineReq miss cycles
system.cpu.dcache.WriteLineReq_accesses::.cpu.data         2823                       # number of WriteLineReq accesses(hits+misses)
system.cpu.dcache.WriteLineReq_accesses::total         2823                       # number of WriteLineReq accesses(hits+misses)
system.cpu.dcache.WriteLineReq_miss_rate::.cpu.data            1                       # miss rate for WriteLineReq accesses
system.cpu.dcache.WriteLineReq_miss_rate::total            1                       # miss rate for WriteLineReq accesses
system.cpu.dcache.WriteLineReq_avg_miss_latency::.cpu.data 32858.312434                       # average WriteLineReq miss latency
system.cpu.dcache.WriteLineReq_avg_miss_latency::total 32858.312434                       # average WriteLineReq miss latency
system.cpu.dcache.WriteLineReq_mshr_misses::.cpu.data         2823                       # number of WriteLineReq MSHR misses
system.cpu.dcache.WriteLineReq_mshr_misses::total         2823                       # number of WriteLineReq MSHR misses
system.cpu.dcache.WriteLineReq_mshr_miss_latency::.cpu.data     89936016                       # number of WriteLineReq MSHR miss cycles
system.cpu.dcache.WriteLineReq_mshr_miss_latency::total     89936016                       # number of WriteLineReq MSHR miss cycles
system.cpu.dcache.WriteLineReq_mshr_miss_rate::.cpu.data            1                       # mshr miss rate for WriteLineReq accesses
system.cpu.dcache.WriteLineReq_mshr_miss_rate::total            1                       # mshr miss rate for WriteLineReq accesses
system.cpu.dcache.WriteLineReq_avg_mshr_miss_latency::.cpu.data 31858.312434                       # average WriteLineReq mshr miss latency
system.cpu.dcache.WriteLineReq_avg_mshr_miss_latency::total 31858.312434                       # average WriteLineReq mshr miss latency
system.cpu.dcache.LoadLockedReq_hits::.cpu.data           18                       # number of LoadLockedReq hits
system.cpu.dcache.LoadLockedReq_hits::total           18                       # number of LoadLockedReq hits
system.cpu.dcache.LoadLockedReq_accesses::.cpu.data           18                       # number of LoadLockedReq accesses(hits+misses)
system.cpu.dcache.LoadLockedReq_accesses::total           18                       # number of LoadLockedReq accesses(hits+misses)
system.cpu.dcache.StoreCondReq_hits::.cpu.data           16                       # number of StoreCondReq hits
system.cpu.dcache.StoreCondReq_hits::total           16                       # number of StoreCondReq hits
system.cpu.dcache.StoreCondReq_accesses::.cpu.data           16                       # number of StoreCondReq accesses(hits+misses)
system.cpu.dcache.StoreCondReq_accesses::total           16                       # number of StoreCondReq accesses(hits+misses)
system.cpu.dcache.power_state.pwrStateResidencyTicks::UNDEFINED    241088500                       # Cumulative time (in ticks) in various power states
system.cpu.dcache.tags.tagsinuse           474.402124                       # Cycle average of tags in use
system.cpu.dcache.tags.total_refs              166329                       # Total number of references to valid blocks.
system.cpu.dcache.tags.sampled_refs             11379                       # Sample count of references to valid blocks.
system.cpu.dcache.tags.avg_refs             14.617190                       # Average number of references to valid blocks.
system.cpu.dcache.tags.warmup_cycle            176500                       # Cycle when the warmup percentage was hit.
system.cpu.dcache.tags.occ_blocks::.cpu.data   474.402124                       # Average occupied blocks per requestor
system.cpu.dcache.tags.occ_percent::.cpu.data     0.926567                       # Average percentage of cache occupancy
system.cpu.dcache.tags.occ_percent::total     0.926567                       # Average percentage of cache occupancy
system.cpu.dcache.tags.occ_task_id_blocks::1024          512                       # Occupied blocks per task id
system.cpu.dcache.tags.age_task_id_blocks_1024::0          471                       # Occupied blocks per task id
system.cpu.dcache.tags.age_task_id_blocks_1024::1           40                       # Occupied blocks per task id
system.cpu.dcache.tags.age_task_id_blocks_1024::2            1                       # Occupied blocks per task id
system.cpu.dcache.tags.occ_task_id_percent::1024            1                       # Percentage of cache occupancy per task id
system.cpu.dcache.tags.tag_accesses            460407                       # Number of tag accesses
system.cpu.dcache.tags.data_accesses           460407                       # Number of data accesses
system.cpu.dcache.tags.power_state.pwrStateResidencyTicks::UNDEFINED    241088500                       # Cumulative time (in ticks) in various power states
system.cpu.power_state.pwrStateResidencyTicks::ON    241088500                       # Cumulative time (in ticks) in various power states

---------- End Simulation Statistics   ----------
