
---------- Begin Simulation Statistics ----------
final_tick                                 2378369000                       # Number of ticks from beginning of simulation (restored from checkpoints and never reset)
host_inst_rate                                  70342                       # Simulator instruction rate (inst/s)
host_mem_usage                                 858120                       # Number of bytes of host memory used
host_op_rate                                    72727                       # Simulator op (including micro ops) rate (op/s)
host_seconds                                    14.22                       # Real time elapsed on the host
host_tick_rate                              167296326                       # Simulator tick rate (ticks/s)
sim_freq                                 1000000000000                       # Frequency of simulated ticks
sim_insts                                     1000000                       # Number of instructions simulated
sim_ops                                       1033929                       # Number of ops (including micro ops) simulated
sim_seconds                                  0.002378                       # Number of seconds simulated
sim_ticks                                  2378369000                       # Number of ticks simulated
system.cpu.branchPred.BTBCorrect                    0                       # Number of correct BTB predictions (this stat may not work properly.
system.cpu.branchPred.BTBHitPct             98.771953                       # BTB Hit Percentage
system.cpu.branchPred.BTBHits                  136892                       # Number of BTB hits
system.cpu.branchPred.BTBLookups               138594                       # Number of BTB lookups
system.cpu.branchPred.RASInCorrect                  7                       # Number of incorrect RAS predictions.
system.cpu.branchPred.condIncorrect             18533                       # Number of conditional branches incorrect
system.cpu.branchPred.condPredicted            177123                       # Number of conditional branches predicted
system.cpu.branchPred.indirectHits                588                       # Number of indirect target hits.
system.cpu.branchPred.indirectLookups            1472                       # Number of indirect predictor lookups.
system.cpu.branchPred.indirectMisses              884                       # Number of indirect misses.
system.cpu.branchPred.lookups                  185561                       # Number of BP lookups
system.cpu.branchPred.loop_predictor.loopPredictorCorrect        75581                       # Number of times the loop predictor is the provider and the prediction is correct
system.cpu.branchPred.loop_predictor.loopPredictorWrong        21590                       # Number of times the loop predictor is the provider and the prediction is wrong
system.cpu.branchPred.statistical_corrector.scPredictorCorrect        22365                       # Number of time the SC predictor is the provider and the prediction is correct
system.cpu.branchPred.statistical_corrector.scPredictorWrong        74806                       # Number of time the SC predictor is the provider and the prediction is wrong
system.cpu.branchPred.tage.bimodalAltMatchProviderCorrect          196                       # Number of times TAGE Alt Match is the bimodal and it is the provider and the prediction is correct
system.cpu.branchPred.tage.bimodalAltMatchProviderWrong           62                       # Number of times TAGE Alt Match is the bimodal and it is the provider and the prediction is wrong
system.cpu.branchPred.tage.tageAltMatchProvider::0          679                       # TAGE provider for alt match
system.cpu.branchPred.tage.tageAltMatchProvider::1            0                       # TAGE provider for alt match
system.cpu.branchPred.tage.tageAltMatchProvider::2          359                       # TAGE provider for alt match
system.cpu.branchPred.tage.tageAltMatchProvider::3            0                       # TAGE provider for alt match
system.cpu.branchPred.tage.tageAltMatchProvider::4          100                       # TAGE provider for alt match
system.cpu.branchPred.tage.tageAltMatchProvider::5            0                       # TAGE provider for alt match
system.cpu.branchPred.tage.tageAltMatchProvider::6           51                       # TAGE provider for alt match
system.cpu.branchPred.tage.tageAltMatchProvider::7          354                       # TAGE provider for alt match
system.cpu.branchPred.tage.tageAltMatchProvider::8          127                       # TAGE provider for alt match
system.cpu.branchPred.tage.tageAltMatchProvider::9          104                       # TAGE provider for alt match
system.cpu.branchPred.tage.tageAltMatchProvider::10           72                       # TAGE provider for alt match
system.cpu.branchPred.tage.tageAltMatchProvider::11          165                       # TAGE provider for alt match
system.cpu.branchPred.tage.tageAltMatchProvider::12           54                       # TAGE provider for alt match
system.cpu.branchPred.tage.tageAltMatchProvider::13          164                       # TAGE provider for alt match
system.cpu.branchPred.tage.tageAltMatchProvider::14          112                       # TAGE provider for alt match
system.cpu.branchPred.tage.tageAltMatchProvider::15          153                       # TAGE provider for alt match
system.cpu.branchPred.tage.tageAltMatchProvider::16          344                       # TAGE provider for alt match
system.cpu.branchPred.tage.tageAltMatchProvider::17          266                       # TAGE provider for alt match
system.cpu.branchPred.tage.tageAltMatchProvider::18          286                       # TAGE provider for alt match
system.cpu.branchPred.tage.tageAltMatchProvider::19          401                       # TAGE provider for alt match
system.cpu.branchPred.tage.tageAltMatchProvider::20          613                       # TAGE provider for alt match
system.cpu.branchPred.tage.tageAltMatchProvider::21            0                       # TAGE provider for alt match
system.cpu.branchPred.tage.tageAltMatchProvider::22          854                       # TAGE provider for alt match
system.cpu.branchPred.tage.tageAltMatchProvider::23            0                       # TAGE provider for alt match
system.cpu.branchPred.tage.tageAltMatchProvider::24         2699                       # TAGE provider for alt match
system.cpu.branchPred.tage.tageAltMatchProvider::25            0                       # TAGE provider for alt match
system.cpu.branchPred.tage.tageAltMatchProvider::26         9454                       # TAGE provider for alt match
system.cpu.branchPred.tage.tageAltMatchProvider::27            0                       # TAGE provider for alt match
system.cpu.branchPred.tage.tageAltMatchProvider::28        24079                       # TAGE provider for alt match
system.cpu.branchPred.tage.tageAltMatchProvider::29            0                       # TAGE provider for alt match
system.cpu.branchPred.tage.tageAltMatchProvider::30            0                       # TAGE provider for alt match
system.cpu.branchPred.tage.tageAltMatchProviderCorrect         1815                       # Number of times TAGE Alt Match is the provider and the prediction is correct
system.cpu.branchPred.tage.tageAltMatchProviderWouldHaveHit         1553                       # Number of times TAGE Longest Match is the provider, the prediction is wrong and Alt Match prediction was correct
system.cpu.branchPred.tage.tageAltMatchProviderWrong         1204                       # Number of times TAGE Alt Match is the provider and the prediction is wrong
system.cpu.branchPred.tage.tageBimodalProviderCorrect        27614                       # Number of times there are no hits on the TAGE tables and the bimodal prediction is correct
system.cpu.branchPred.tage.tageBimodalProviderWrong          844                       # Number of times there are no hits on the TAGE tables and the bimodal prediction is wrong
system.cpu.branchPred.tage.tageLongestMatchProvider::0            0                       # TAGE provider for longest match
system.cpu.branchPred.tage.tageLongestMatchProvider::1            0                       # TAGE provider for longest match
system.cpu.branchPred.tage.tageLongestMatchProvider::2          192                       # TAGE provider for longest match
system.cpu.branchPred.tage.tageLongestMatchProvider::3            0                       # TAGE provider for longest match
system.cpu.branchPred.tage.tageLongestMatchProvider::4          114                       # TAGE provider for longest match
system.cpu.branchPred.tage.tageLongestMatchProvider::5            0                       # TAGE provider for longest match
system.cpu.branchPred.tage.tageLongestMatchProvider::6          384                       # TAGE provider for longest match
system.cpu.branchPred.tage.tageLongestMatchProvider::7          157                       # TAGE provider for longest match
system.cpu.branchPred.tage.tageLongestMatchProvider::8          184                       # TAGE provider for longest match
system.cpu.branchPred.tage.tageLongestMatchProvider::9          109                       # TAGE provider for longest match
system.cpu.branchPred.tage.tageLongestMatchProvider::10          443                       # TAGE provider for longest match
system.cpu.branchPred.tage.tageLongestMatchProvider::11          148                       # TAGE provider for longest match
system.cpu.branchPred.tage.tageLongestMatchProvider::12           60                       # TAGE provider for longest match
system.cpu.branchPred.tage.tageLongestMatchProvider::13           63                       # TAGE provider for longest match
system.cpu.branchPred.tage.tageLongestMatchProvider::14          139                       # TAGE provider for longest match
system.cpu.branchPred.tage.tageLongestMatchProvider::15          108                       # TAGE provider for longest match
system.cpu.branchPred.tage.tageLongestMatchProvider::16          164                       # TAGE provider for longest match
system.cpu.branchPred.tage.tageLongestMatchProvider::17          300                       # TAGE provider for longest match
system.cpu.branchPred.tage.tageLongestMatchProvider::18          141                       # TAGE provider for longest match
system.cpu.branchPred.tage.tageLongestMatchProvider::19          256                       # TAGE provider for longest match
system.cpu.branchPred.tage.tageLongestMatchProvider::20          343                       # TAGE provider for longest match
system.cpu.branchPred.tage.tageLongestMatchProvider::21            0                       # TAGE provider for longest match
system.cpu.branchPred.tage.tageLongestMatchProvider::22          397                       # TAGE provider for longest match
system.cpu.branchPred.tage.tageLongestMatchProvider::23            0                       # TAGE provider for longest match
system.cpu.branchPred.tage.tageLongestMatchProvider::24          922                       # TAGE provider for longest match
system.cpu.branchPred.tage.tageLongestMatchProvider::25            0                       # TAGE provider for longest match
system.cpu.branchPred.tage.tageLongestMatchProvider::26         1456                       # TAGE provider for longest match
system.cpu.branchPred.tage.tageLongestMatchProvider::27            0                       # TAGE provider for longest match
system.cpu.branchPred.tage.tageLongestMatchProvider::28         5601                       # TAGE provider for longest match
system.cpu.branchPred.tage.tageLongestMatchProvider::29            0                       # TAGE provider for longest match
system.cpu.branchPred.tage.tageLongestMatchProvider::30        29809                       # TAGE provider for longest match
system.cpu.branchPred.tage.tageLongestMatchProviderCorrect        30659                       # Number of times TAGE Longest Match is the provider and the prediction is correct
system.cpu.branchPred.tage.tageLongestMatchProviderWouldHaveHit          775                       # Number of times TAGE Alt Match is the provider, the prediction is wrong and Longest Match prediction was correct
system.cpu.branchPred.tage.tageLongestMatchProviderWrong         7812                       # Number of times TAGE Longest Match is the provider and the prediction is wrong
system.cpu.branchPred.usedRAS                    2833                       # Number of times the RAS was used to get a target.
system.cpu.branchPredindirectMispredicted          205                       # Number of mispredicted indirect branches.
system.cpu.cc_regfile_reads                    328677                       # number of cc regfile reads
system.cpu.cc_regfile_writes                   340566                       # number of cc regfile writes
system.cpu.commit.amos                              0                       # Number of atomic instructions committed
system.cpu.commit.branchMispredicts             17987                       # The number of times a branch was mispredicted
system.cpu.commit.branches                     102118                       # Number of branches committed
system.cpu.commit.bw_lim_events                 26782                       # number cycles where commit BW limit reached
system.cpu.commit.commitNonSpecStalls             162                       # The number of times commit has been forced to stall to communicate backwards
system.cpu.commit.commitSquashedInsts          353315                       # The number of squashed insts skipped by commit
system.cpu.commit.committedInsts              1000217                       # Number of instructions committed
system.cpu.commit.committedOps                1034146                       # Number of ops (including micro ops) committed
system.cpu.commit.committed_per_cycle::samples      4632570                       # Number of insts commited each cycle
system.cpu.commit.committed_per_cycle::mean     0.223234                       # Number of insts commited each cycle
system.cpu.commit.committed_per_cycle::stdev     0.967467                       # Number of insts commited each cycle
system.cpu.commit.committed_per_cycle::underflows            0      0.00%      0.00% # Number of insts commited each cycle
system.cpu.commit.committed_per_cycle::0      4299727     92.82%     92.82% # Number of insts commited each cycle
system.cpu.commit.committed_per_cycle::1       103235      2.23%     95.04% # Number of insts commited each cycle
system.cpu.commit.committed_per_cycle::2        28445      0.61%     95.66% # Number of insts commited each cycle
system.cpu.commit.committed_per_cycle::3        72389      1.56%     97.22% # Number of insts commited each cycle
system.cpu.commit.committed_per_cycle::4        82558      1.78%     99.00% # Number of insts commited each cycle
system.cpu.commit.committed_per_cycle::5         9442      0.20%     99.21% # Number of insts commited each cycle
system.cpu.commit.committed_per_cycle::6         4788      0.10%     99.31% # Number of insts commited each cycle
system.cpu.commit.committed_per_cycle::7         5204      0.11%     99.42% # Number of insts commited each cycle
system.cpu.commit.committed_per_cycle::8        26782      0.58%    100.00% # Number of insts commited each cycle
system.cpu.commit.committed_per_cycle::overflows            0      0.00%    100.00% # Number of insts commited each cycle
system.cpu.commit.committed_per_cycle::min_value            0                       # Number of insts commited each cycle
system.cpu.commit.committed_per_cycle::max_value            8                       # Number of insts commited each cycle
system.cpu.commit.committed_per_cycle::total      4632570                       # Number of insts commited each cycle
system.cpu.commit.fp_insts                          0                       # Number of committed floating point instructions.
system.cpu.commit.function_calls                 1944                       # Number of function calls committed.
system.cpu.commit.int_insts                    938116                       # Number of committed integer instructions.
system.cpu.commit.loads                         14759                       # Number of loads committed
system.cpu.commit.membars                         100                       # Number of memory barriers committed
system.cpu.commit.op_class_0::No_OpClass            4      0.00%      0.00% # Class of committed instruction
system.cpu.commit.op_class_0::IntAlu           396501     38.34%     38.34% # Class of committed instruction
system.cpu.commit.op_class_0::IntMult             174      0.02%     38.36% # Class of committed instruction
system.cpu.commit.op_class_0::IntDiv               22      0.00%     38.36% # Class of committed instruction
system.cpu.commit.op_class_0::FloatAdd              4      0.00%     38.36% # Class of committed instruction
system.cpu.commit.op_class_0::FloatCmp              0      0.00%     38.36% # Class of committed instruction
system.cpu.commit.op_class_0::FloatCvt           2813      0.27%     38.63% # Class of committed instruction
system.cpu.commit.op_class_0::FloatMult          2810      0.27%     38.90% # Class of committed instruction
system.cpu.commit.op_class_0::FloatMultAcc            0      0.00%     38.90% # Class of committed instruction
system.cpu.commit.op_class_0::FloatDiv              3      0.00%     38.90% # Class of committed instruction
system.cpu.commit.op_class_0::FloatMisc            15      0.00%     38.91% # Class of committed instruction
system.cpu.commit.op_class_0::FloatSqrt             0      0.00%     38.91% # Class of committed instruction
system.cpu.commit.op_class_0::SimdAdd              19      0.00%     38.91% # Class of committed instruction
system.cpu.commit.op_class_0::SimdAddAcc            0      0.00%     38.91% # Class of committed instruction
system.cpu.commit.op_class_0::SimdAlu              12      0.00%     38.91% # Class of committed instruction
system.cpu.commit.op_class_0::SimdCmp              16      0.00%     38.91% # Class of committed instruction
system.cpu.commit.op_class_0::SimdCvt               0      0.00%     38.91% # Class of committed instruction
system.cpu.commit.op_class_0::SimdMisc             52      0.01%     38.92% # Class of committed instruction
system.cpu.commit.op_class_0::SimdMult              0      0.00%     38.92% # Class of committed instruction
system.cpu.commit.op_class_0::SimdMultAcc            0      0.00%     38.92% # Class of committed instruction
system.cpu.commit.op_class_0::SimdShift             0      0.00%     38.92% # Class of committed instruction
system.cpu.commit.op_class_0::SimdShiftAcc            0      0.00%     38.92% # Class of committed instruction
system.cpu.commit.op_class_0::SimdDiv               0      0.00%     38.92% # Class of committed instruction
system.cpu.commit.op_class_0::SimdSqrt              0      0.00%     38.92% # Class of committed instruction
system.cpu.commit.op_class_0::SimdFloatAdd            0      0.00%     38.92% # Class of committed instruction
system.cpu.commit.op_class_0::SimdFloatAlu            0      0.00%     38.92% # Class of committed instruction
system.cpu.commit.op_class_0::SimdFloatCmp            0      0.00%     38.92% # Class of committed instruction
system.cpu.commit.op_class_0::SimdFloatCvt            0      0.00%     38.92% # Class of committed instruction
system.cpu.commit.op_class_0::SimdFloatDiv            0      0.00%     38.92% # Class of committed instruction
system.cpu.commit.op_class_0::SimdFloatMisc            0      0.00%     38.92% # Class of committed instruction
system.cpu.commit.op_class_0::SimdFloatMult            0      0.00%     38.92% # Class of committed instruction
system.cpu.commit.op_class_0::SimdFloatMultAcc            0      0.00%     38.92% # Class of committed instruction
system.cpu.commit.op_class_0::SimdFloatSqrt            0      0.00%     38.92% # Class of committed instruction
system.cpu.commit.op_class_0::SimdReduceAdd            0      0.00%     38.92% # Class of committed instruction
system.cpu.commit.op_class_0::SimdReduceAlu            0      0.00%     38.92% # Class of committed instruction
system.cpu.commit.op_class_0::SimdReduceCmp            0      0.00%     38.92% # Class of committed instruction
system.cpu.commit.op_class_0::SimdFloatReduceAdd            0      0.00%     38.92% # Class of committed instruction
system.cpu.commit.op_class_0::SimdFloatReduceCmp            0      0.00%     38.92% # Class of committed instruction
system.cpu.commit.op_class_0::SimdAes               0      0.00%     38.92% # Class of committed instruction
system.cpu.commit.op_class_0::SimdAesMix            0      0.00%     38.92% # Class of committed instruction
system.cpu.commit.op_class_0::SimdSha1Hash            0      0.00%     38.92% # Class of committed instruction
system.cpu.commit.op_class_0::SimdSha1Hash2            0      0.00%     38.92% # Class of committed instruction
system.cpu.commit.op_class_0::SimdSha256Hash            0      0.00%     38.92% # Class of committed instruction
system.cpu.commit.op_class_0::SimdSha256Hash2            0      0.00%     38.92% # Class of committed instruction
system.cpu.commit.op_class_0::SimdShaSigma2            0      0.00%     38.92% # Class of committed instruction
system.cpu.commit.op_class_0::SimdShaSigma3            0      0.00%     38.92% # Class of committed instruction
system.cpu.commit.op_class_0::SimdPredAlu            0      0.00%     38.92% # Class of committed instruction
system.cpu.commit.op_class_0::MemRead           14759      1.43%     40.34% # Class of committed instruction
system.cpu.commit.op_class_0::MemWrite         616942     59.66%    100.00% # Class of committed instruction
system.cpu.commit.op_class_0::FloatMemRead            0      0.00%    100.00% # Class of committed instruction
system.cpu.commit.op_class_0::FloatMemWrite            0      0.00%    100.00% # Class of committed instruction
system.cpu.commit.op_class_0::IprAccess             0      0.00%    100.00% # Class of committed instruction
system.cpu.commit.op_class_0::InstPrefetch            0      0.00%    100.00% # Class of committed instruction
system.cpu.commit.op_class_0::total           1034146                       # Class of committed instruction
system.cpu.commit.refs                         631701                       # Number of memory references committed
system.cpu.commit.swp_count                         0                       # Number of s/w prefetches committed
system.cpu.commit.vec_insts                     28978                       # Number of committed Vector instructions.
system.cpu.committedInsts                     1000000                       # Number of Instructions Simulated
system.cpu.committedOps                       1033929                       # Number of Ops (including micro ops) Simulated
system.cpu.cpi                               4.756740                       # CPI: Cycles Per Instruction
system.cpu.cpi_total                         4.756740                       # CPI: Total CPI of All Threads
system.cpu.decode.BlockedCycles               4241372                       # Number of cycles decode is blocked
system.cpu.decode.BranchMispred                   563                       # Number of times decode detected a branch misprediction
system.cpu.decode.BranchResolved               117396                       # Number of times decode resolved a branch
system.cpu.decode.DecodedInsts                1586891                       # Number of instructions handled by decode
system.cpu.decode.IdleCycles                   180067                       # Number of cycles decode is idle
system.cpu.decode.RunCycles                    197238                       # Number of cycles decode is running
system.cpu.decode.SquashCycles                  19249                       # Number of cycles decode is squashing
system.cpu.decode.SquashedInsts                  1992                       # Number of squashed instructions handled by decode
system.cpu.decode.UnblockCycles                 49495                       # Number of cycles decode is unblocking
system.cpu.dtb.accesses                             0                       # DTB accesses
system.cpu.dtb.align_faults                         0                       # Number of TLB faults due to alignment restrictions
system.cpu.dtb.domain_faults                        0                       # Number of TLB faults due to domain restrictions
system.cpu.dtb.flush_entries                        0                       # Number of entries that have been flushed from TLB
system.cpu.dtb.flush_tlb                            0                       # Number of times complete TLB was flushed
system.cpu.dtb.flush_tlb_asid                       0                       # Number of times TLB was flushed by ASID
system.cpu.dtb.flush_tlb_mva                        0                       # Number of times TLB was flushed by MVA
system.cpu.dtb.flush_tlb_mva_asid                   0                       # Number of times TLB was flushed by MVA & ASID
system.cpu.dtb.hits                                 0                       # DTB hits
system.cpu.dtb.inst_accesses                        0                       # ITB inst accesses
system.cpu.dtb.inst_hits                            0                       # ITB inst hits
system.cpu.dtb.inst_misses                          0                       # ITB inst misses
system.cpu.dtb.misses                               0                       # DTB misses
system.cpu.dtb.perms_faults                         0                       # Number of TLB faults due to permissions restrictions
system.cpu.dtb.prefetch_faults                      0                       # Number of TLB faults due to prefetch
system.cpu.dtb.read_accesses                        0                       # DTB read accesses
system.cpu.dtb.read_hits                            0                       # DTB read hits
system.cpu.dtb.read_misses                          0                       # DTB read misses
system.cpu.dtb.stage2_mmu.stage2_tlb.accesses            0                       # DTB accesses
system.cpu.dtb.stage2_mmu.stage2_tlb.align_faults            0                       # Number of TLB faults due to alignment restrictions
system.cpu.dtb.stage2_mmu.stage2_tlb.domain_faults            0                       # Number of TLB faults due to domain restrictions
system.cpu.dtb.stage2_mmu.stage2_tlb.flush_entries            0                       # Number of entries that have been flushed from TLB
system.cpu.dtb.stage2_mmu.stage2_tlb.flush_tlb            0                       # Number of times complete TLB was flushed
system.cpu.dtb.stage2_mmu.stage2_tlb.flush_tlb_asid            0                       # Number of times TLB was flushed by ASID
system.cpu.dtb.stage2_mmu.stage2_tlb.flush_tlb_mva            0                       # Number of times TLB was flushed by MVA
system.cpu.dtb.stage2_mmu.stage2_tlb.flush_tlb_mva_asid            0                       # Number of times TLB was flushed by MVA & ASID
system.cpu.dtb.stage2_mmu.stage2_tlb.hits            0                       # DTB hits
system.cpu.dtb.stage2_mmu.stage2_tlb.inst_accesses            0                       # ITB inst accesses
system.cpu.dtb.stage2_mmu.stage2_tlb.inst_hits            0                       # ITB inst hits
system.cpu.dtb.stage2_mmu.stage2_tlb.inst_misses            0                       # ITB inst misses
system.cpu.dtb.stage2_mmu.stage2_tlb.misses            0                       # DTB misses
system.cpu.dtb.stage2_mmu.stage2_tlb.perms_faults            0                       # Number of TLB faults due to permissions restrictions
system.cpu.dtb.stage2_mmu.stage2_tlb.prefetch_faults            0                       # Number of TLB faults due to prefetch
system.cpu.dtb.stage2_mmu.stage2_tlb.read_accesses            0                       # DTB read accesses
system.cpu.dtb.stage2_mmu.stage2_tlb.read_hits            0                       # DTB read hits
system.cpu.dtb.stage2_mmu.stage2_tlb.read_misses            0                       # DTB read misses
system.cpu.dtb.stage2_mmu.stage2_tlb.walker.walkRequestOrigin_Requested::Data            0                       # Table walker requests started/completed, data/inst
system.cpu.dtb.stage2_mmu.stage2_tlb.walker.walkRequestOrigin_Requested::Inst            0                       # Table walker requests started/completed, data/inst
system.cpu.dtb.stage2_mmu.stage2_tlb.walker.walkRequestOrigin_Requested::total            0                       # Table walker requests started/completed, data/inst
system.cpu.dtb.stage2_mmu.stage2_tlb.walker.walkRequestOrigin_Completed::Data            0                       # Table walker requests started/completed, data/inst
system.cpu.dtb.stage2_mmu.stage2_tlb.walker.walkRequestOrigin_Completed::Inst            0                       # Table walker requests started/completed, data/inst
system.cpu.dtb.stage2_mmu.stage2_tlb.walker.walkRequestOrigin_Completed::total            0                       # Table walker requests started/completed, data/inst
system.cpu.dtb.stage2_mmu.stage2_tlb.walker.walkRequestOrigin::total            0                       # Table walker requests started/completed, data/inst
system.cpu.dtb.stage2_mmu.stage2_tlb.walker.walks            0                       # Table walker walks requested
system.cpu.dtb.stage2_mmu.stage2_tlb.write_accesses            0                       # DTB write accesses
system.cpu.dtb.stage2_mmu.stage2_tlb.write_hits            0                       # DTB write hits
system.cpu.dtb.stage2_mmu.stage2_tlb.write_misses            0                       # DTB write misses
system.cpu.dtb.walker.walkRequestOrigin_Requested::Data            0                       # Table walker requests started/completed, data/inst
system.cpu.dtb.walker.walkRequestOrigin_Requested::Inst            0                       # Table walker requests started/completed, data/inst
system.cpu.dtb.walker.walkRequestOrigin_Requested::total            0                       # Table walker requests started/completed, data/inst
system.cpu.dtb.walker.walkRequestOrigin_Completed::Data            0                       # Table walker requests started/completed, data/inst
system.cpu.dtb.walker.walkRequestOrigin_Completed::Inst            0                       # Table walker requests started/completed, data/inst
system.cpu.dtb.walker.walkRequestOrigin_Completed::total            0                       # Table walker requests started/completed, data/inst
system.cpu.dtb.walker.walkRequestOrigin::total            0                       # Table walker requests started/completed, data/inst
system.cpu.dtb.walker.walks                         0                       # Table walker walks requested
system.cpu.dtb.write_accesses                       0                       # DTB write accesses
system.cpu.dtb.write_hits                           0                       # DTB write hits
system.cpu.dtb.write_misses                         0                       # DTB write misses
system.cpu.fetch.Branches                      185561                       # Number of branches that fetch encountered
system.cpu.fetch.CacheLines                    287663                       # Number of cache lines fetched
system.cpu.fetch.Cycles                       4350270                       # Number of cycles fetch has run and was not squashing or blocked
system.cpu.fetch.IcacheSquashes                  7143                       # Number of outstanding Icache misses that were squashed
system.cpu.fetch.IcacheWaitRetryStallCycles           24                       # Number of stall cycles due to full MSHR
system.cpu.fetch.Insts                        1826015                       # Number of instructions fetch has processed
system.cpu.fetch.MiscStallCycles                   28                       # Number of cycles fetch has spent waiting on interrupts, or bad addresses, or out of MSHRs
system.cpu.fetch.SquashCycles                   39590                       # Number of cycles fetch has spent squashing
system.cpu.fetch.branchRate                  0.039010                       # Number of branch fetches per cycle
system.cpu.fetch.icacheStallCycles             317304                       # Number of cycles fetch is stalled on an Icache miss
system.cpu.fetch.predictedBranches             140313                       # Number of branches that fetch has predicted taken
system.cpu.fetch.rate                        0.383880                       # Number of inst fetches per cycle
system.cpu.fetch.rateDist::samples            4687421                       # Number of instructions fetched each cycle (Total)
system.cpu.fetch.rateDist::mean              0.402776                       # Number of instructions fetched each cycle (Total)
system.cpu.fetch.rateDist::stdev             1.590550                       # Number of instructions fetched each cycle (Total)
system.cpu.fetch.rateDist::underflows               0      0.00%      0.00% # Number of instructions fetched each cycle (Total)
system.cpu.fetch.rateDist::0                  4348825     92.78%     92.78% # Number of instructions fetched each cycle (Total)
system.cpu.fetch.rateDist::1                    16824      0.36%     93.14% # Number of instructions fetched each cycle (Total)
system.cpu.fetch.rateDist::2                     8205      0.18%     93.31% # Number of instructions fetched each cycle (Total)
system.cpu.fetch.rateDist::3                   100126      2.14%     95.45% # Number of instructions fetched each cycle (Total)
system.cpu.fetch.rateDist::4                     9726      0.21%     95.65% # Number of instructions fetched each cycle (Total)
system.cpu.fetch.rateDist::5                    28561      0.61%     96.26% # Number of instructions fetched each cycle (Total)
system.cpu.fetch.rateDist::6                     8618      0.18%     96.45% # Number of instructions fetched each cycle (Total)
system.cpu.fetch.rateDist::7                    11338      0.24%     96.69% # Number of instructions fetched each cycle (Total)
system.cpu.fetch.rateDist::8                   155198      3.31%    100.00% # Number of instructions fetched each cycle (Total)
system.cpu.fetch.rateDist::overflows                0      0.00%    100.00% # Number of instructions fetched each cycle (Total)
system.cpu.fetch.rateDist::min_value                0                       # Number of instructions fetched each cycle (Total)
system.cpu.fetch.rateDist::max_value                8                       # Number of instructions fetched each cycle (Total)
system.cpu.fetch.rateDist::total              4687421                       # Number of instructions fetched each cycle (Total)
system.cpu.idleCycles                           69319                       # Total number of cycles that the CPU has spent unscheduled due to idling
system.cpu.iew.branchMispredicts                19707                       # Number of branch mispredicts detected at execute
system.cpu.iew.exec_branches                   119498                       # Number of branches executed
system.cpu.iew.exec_nop                           293                       # number of nop insts executed
system.cpu.iew.exec_rate                     0.266983                       # Inst execution rate
system.cpu.iew.exec_refs                       764673                       # number of memory reference insts executed
system.cpu.iew.exec_stores                     745527                       # Number of stores executed
system.cpu.iew.exec_swp                             0                       # number of swp insts executed
system.cpu.iew.iewBlockCycles                   36303                       # Number of cycles IEW is blocking
system.cpu.iew.iewDispLoadInsts                 19462                       # Number of dispatched load instructions
system.cpu.iew.iewDispNonSpecInsts                195                       # Number of dispatched non-speculative instructions
system.cpu.iew.iewDispSquashedInsts              2418                       # Number of squashed instructions skipped by dispatch
system.cpu.iew.iewDispStoreInsts               822533                       # Number of dispatched store instructions
system.cpu.iew.iewDispatchedInsts             1387610                       # Number of instructions dispatched to IQ
system.cpu.iew.iewExecLoadInsts                 19146                       # Number of load instructions executed
system.cpu.iew.iewExecSquashedInsts             61691                       # Number of squashed instructions skipped in execute
system.cpu.iew.iewExecutedInsts               1269971                       # Number of executed instructions
system.cpu.iew.iewIQFullEvents                     17                       # Number of times the IQ has become full, causing a stall
system.cpu.iew.iewIdleCycles                        0                       # Number of cycles IEW is idle
system.cpu.iew.iewLSQFullEvents               2119830                       # Number of times the LSQ has become full, causing a stall
system.cpu.iew.iewSquashCycles                  19249                       # Number of cycles IEW is squashing
system.cpu.iew.iewUnblockCycles               2117384                       # Number of cycles IEW is unblocking
system.cpu.iew.lsq.thread0.blockedLoads             0                       # Number of blocked loads due to partial load-store forwarding
system.cpu.iew.lsq.thread0.cacheBlocked         47215                       # Number of times an access to memory failed due to the cache being blocked
system.cpu.iew.lsq.thread0.forwLoads              497                       # Number of loads that had data forwarded from stores
system.cpu.iew.lsq.thread0.ignoredResponses            4                       # Number of memory responses ignored because the instruction is squashed
system.cpu.iew.lsq.thread0.invAddrLoads             0                       # Number of loads ignored due to an invalid address
system.cpu.iew.lsq.thread0.invAddrSwpfs             0                       # Number of software prefetches ignored due to an invalid address
system.cpu.iew.lsq.thread0.memOrderViolation           29                       # Number of memory ordering violations
system.cpu.iew.lsq.thread0.rescheduledLoads          535                       # Number of loads that were rescheduled
system.cpu.iew.lsq.thread0.squashedLoads         4703                       # Number of loads squashed
system.cpu.iew.lsq.thread0.squashedStores       205591                       # Number of stores squashed
system.cpu.iew.memOrderViolationEvents             29                       # Number of memory order violations
system.cpu.iew.predictedNotTakenIncorrect         9167                       # Number of branches that were predicted not taken incorrectly
system.cpu.iew.predictedTakenIncorrect          10540                       # Number of branches that were predicted taken incorrectly
system.cpu.iew.wb_consumers                    834910                       # num instructions consuming a value
system.cpu.iew.wb_count                       1244931                       # cumulative count of insts written-back
system.cpu.iew.wb_fanout                     0.370368                       # average fanout of values written-back
system.cpu.iew.wb_producers                    309224                       # num instructions producing a value
system.cpu.iew.wb_rate                       0.261719                       # insts written-back per cycle
system.cpu.iew.wb_sent                        1267715                       # cumulative count of insts sent to commit
system.cpu.int_regfile_reads                  2693361                       # number of integer regfile reads
system.cpu.int_regfile_writes                  401477                       # number of integer regfile writes
system.cpu.ipc                               0.210228                       # IPC: Instructions Per Cycle
system.cpu.ipc_total                         0.210228                       # IPC: Total IPC of All Threads
system.cpu.iq.FU_type_0::No_OpClass                 4      0.00%      0.00% # Type of FU issued
system.cpu.iq.FU_type_0::IntAlu                514474     38.63%     38.63% # Type of FU issued
system.cpu.iq.FU_type_0::IntMult                  181      0.01%     38.65% # Type of FU issued
system.cpu.iq.FU_type_0::IntDiv                    32      0.00%     38.65% # Type of FU issued
system.cpu.iq.FU_type_0::FloatAdd                   5      0.00%     38.65% # Type of FU issued
system.cpu.iq.FU_type_0::FloatCmp                   0      0.00%     38.65% # Type of FU issued
system.cpu.iq.FU_type_0::FloatCvt                3498      0.26%     38.91% # Type of FU issued
system.cpu.iq.FU_type_0::FloatMult               3007      0.23%     39.14% # Type of FU issued
system.cpu.iq.FU_type_0::FloatMultAcc               0      0.00%     39.14% # Type of FU issued
system.cpu.iq.FU_type_0::FloatDiv                   3      0.00%     39.14% # Type of FU issued
system.cpu.iq.FU_type_0::FloatMisc                 23      0.00%     39.14% # Type of FU issued
system.cpu.iq.FU_type_0::FloatSqrt                  0      0.00%     39.14% # Type of FU issued
system.cpu.iq.FU_type_0::SimdAdd                   23      0.00%     39.14% # Type of FU issued
system.cpu.iq.FU_type_0::SimdAddAcc                 0      0.00%     39.14% # Type of FU issued
system.cpu.iq.FU_type_0::SimdAlu                   16      0.00%     39.14% # Type of FU issued
system.cpu.iq.FU_type_0::SimdCmp                   16      0.00%     39.15% # Type of FU issued
system.cpu.iq.FU_type_0::SimdCvt                    0      0.00%     39.15% # Type of FU issued
system.cpu.iq.FU_type_0::SimdMisc                  59      0.00%     39.15% # Type of FU issued
system.cpu.iq.FU_type_0::SimdMult                   0      0.00%     39.15% # Type of FU issued
system.cpu.iq.FU_type_0::SimdMultAcc                0      0.00%     39.15% # Type of FU issued
system.cpu.iq.FU_type_0::SimdShift                  0      0.00%     39.15% # Type of FU issued
system.cpu.iq.FU_type_0::SimdShiftAcc               0      0.00%     39.15% # Type of FU issued
system.cpu.iq.FU_type_0::SimdDiv                    0      0.00%     39.15% # Type of FU issued
system.cpu.iq.FU_type_0::SimdSqrt                   0      0.00%     39.15% # Type of FU issued
system.cpu.iq.FU_type_0::SimdFloatAdd               0      0.00%     39.15% # Type of FU issued
system.cpu.iq.FU_type_0::SimdFloatAlu               0      0.00%     39.15% # Type of FU issued
system.cpu.iq.FU_type_0::SimdFloatCmp               0      0.00%     39.15% # Type of FU issued
system.cpu.iq.FU_type_0::SimdFloatCvt               0      0.00%     39.15% # Type of FU issued
system.cpu.iq.FU_type_0::SimdFloatDiv               0      0.00%     39.15% # Type of FU issued
system.cpu.iq.FU_type_0::SimdFloatMisc              0      0.00%     39.15% # Type of FU issued
system.cpu.iq.FU_type_0::SimdFloatMult              0      0.00%     39.15% # Type of FU issued
system.cpu.iq.FU_type_0::SimdFloatMultAcc            0      0.00%     39.15% # Type of FU issued
system.cpu.iq.FU_type_0::SimdFloatSqrt              0      0.00%     39.15% # Type of FU issued
system.cpu.iq.FU_type_0::SimdReduceAdd              0      0.00%     39.15% # Type of FU issued
system.cpu.iq.FU_type_0::SimdReduceAlu              0      0.00%     39.15% # Type of FU issued
system.cpu.iq.FU_type_0::SimdReduceCmp              0      0.00%     39.15% # Type of FU issued
system.cpu.iq.FU_type_0::SimdFloatReduceAdd            0      0.00%     39.15% # Type of FU issued
system.cpu.iq.FU_type_0::SimdFloatReduceCmp            0      0.00%     39.15% # Type of FU issued
system.cpu.iq.FU_type_0::SimdAes                    0      0.00%     39.15% # Type of FU issued
system.cpu.iq.FU_type_0::SimdAesMix                 0      0.00%     39.15% # Type of FU issued
system.cpu.iq.FU_type_0::SimdSha1Hash               0      0.00%     39.15% # Type of FU issued
system.cpu.iq.FU_type_0::SimdSha1Hash2              0      0.00%     39.15% # Type of FU issued
system.cpu.iq.FU_type_0::SimdSha256Hash             0      0.00%     39.15% # Type of FU issued
system.cpu.iq.FU_type_0::SimdSha256Hash2            0      0.00%     39.15% # Type of FU issued
system.cpu.iq.FU_type_0::SimdShaSigma2              0      0.00%     39.15% # Type of FU issued
system.cpu.iq.FU_type_0::SimdShaSigma3              0      0.00%     39.15% # Type of FU issued
system.cpu.iq.FU_type_0::SimdPredAlu                0      0.00%     39.15% # Type of FU issued
system.cpu.iq.FU_type_0::MemRead                19807      1.49%     40.64% # Type of FU issued
system.cpu.iq.FU_type_0::MemWrite              790514     59.36%    100.00% # Type of FU issued
system.cpu.iq.FU_type_0::FloatMemRead               0      0.00%    100.00% # Type of FU issued
system.cpu.iq.FU_type_0::FloatMemWrite              0      0.00%    100.00% # Type of FU issued
system.cpu.iq.FU_type_0::IprAccess                  0      0.00%    100.00% # Type of FU issued
system.cpu.iq.FU_type_0::InstPrefetch               0      0.00%    100.00% # Type of FU issued
system.cpu.iq.FU_type_0::total                1331662                       # Type of FU issued
system.cpu.iq.fp_alu_accesses                       0                       # Number of floating point alu accesses
system.cpu.iq.fp_inst_queue_reads                   0                       # Number of floating instruction queue reads
system.cpu.iq.fp_inst_queue_wakeup_accesses            0                       # Number of floating instruction queue wakeup accesses
system.cpu.iq.fp_inst_queue_writes                  0                       # Number of floating instruction queue writes
system.cpu.iq.fu_busy_cnt                       90929                       # FU busy when requested
system.cpu.iq.fu_busy_rate                   0.068282                       # FU busy rate (busy events/executed inst)
system.cpu.iq.fu_full::No_OpClass                   0      0.00%      0.00% # attempts to use FU when none available
system.cpu.iq.fu_full::IntAlu                     987      1.09%      1.09% # attempts to use FU when none available
system.cpu.iq.fu_full::IntMult                      0      0.00%      1.09% # attempts to use FU when none available
system.cpu.iq.fu_full::IntDiv                       0      0.00%      1.09% # attempts to use FU when none available
system.cpu.iq.fu_full::FloatAdd                     0      0.00%      1.09% # attempts to use FU when none available
system.cpu.iq.fu_full::FloatCmp                     0      0.00%      1.09% # attempts to use FU when none available
system.cpu.iq.fu_full::FloatCvt                     0      0.00%      1.09% # attempts to use FU when none available
system.cpu.iq.fu_full::FloatMult                    0      0.00%      1.09% # attempts to use FU when none available
system.cpu.iq.fu_full::FloatMultAcc                 0      0.00%      1.09% # attempts to use FU when none available
system.cpu.iq.fu_full::FloatDiv                    12      0.01%      1.10% # attempts to use FU when none available
system.cpu.iq.fu_full::FloatMisc                    0      0.00%      1.10% # attempts to use FU when none available
system.cpu.iq.fu_full::FloatSqrt                    0      0.00%      1.10% # attempts to use FU when none available
system.cpu.iq.fu_full::SimdAdd                      0      0.00%      1.10% # attempts to use FU when none available
system.cpu.iq.fu_full::SimdAddAcc                   0      0.00%      1.10% # attempts to use FU when none available
system.cpu.iq.fu_full::SimdAlu                      1      0.00%      1.10% # attempts to use FU when none available
system.cpu.iq.fu_full::SimdCmp                      0      0.00%      1.10% # attempts to use FU when none available
system.cpu.iq.fu_full::SimdCvt                      0      0.00%      1.10% # attempts to use FU when none available
system.cpu.iq.fu_full::SimdMisc                     0      0.00%      1.10% # attempts to use FU when none available
system.cpu.iq.fu_full::SimdMult                     0      0.00%      1.10% # attempts to use FU when none available
system.cpu.iq.fu_full::SimdMultAcc                  0      0.00%      1.10% # attempts to use FU when none available
system.cpu.iq.fu_full::SimdShift                    0      0.00%      1.10% # attempts to use FU when none available
system.cpu.iq.fu_full::SimdShiftAcc                 0      0.00%      1.10% # attempts to use FU when none available
system.cpu.iq.fu_full::SimdDiv                      0      0.00%      1.10% # attempts to use FU when none available
system.cpu.iq.fu_full::SimdSqrt                     0      0.00%      1.10% # attempts to use FU when none available
system.cpu.iq.fu_full::SimdFloatAdd                 0      0.00%      1.10% # attempts to use FU when none available
system.cpu.iq.fu_full::SimdFloatAlu                 0      0.00%      1.10% # attempts to use FU when none available
system.cpu.iq.fu_full::SimdFloatCmp                 0      0.00%      1.10% # attempts to use FU when none available
system.cpu.iq.fu_full::SimdFloatCvt                 0      0.00%      1.10% # attempts to use FU when none available
system.cpu.iq.fu_full::SimdFloatDiv                 0      0.00%      1.10% # attempts to use FU when none available
system.cpu.iq.fu_full::SimdFloatMisc                0      0.00%      1.10% # attempts to use FU when none available
system.cpu.iq.fu_full::SimdFloatMult                0      0.00%      1.10% # attempts to use FU when none available
system.cpu.iq.fu_full::SimdFloatMultAcc             0      0.00%      1.10% # attempts to use FU when none available
system.cpu.iq.fu_full::SimdFloatSqrt                0      0.00%      1.10% # attempts to use FU when none available
system.cpu.iq.fu_full::SimdReduceAdd                0      0.00%      1.10% # attempts to use FU when none available
system.cpu.iq.fu_full::SimdReduceAlu                0      0.00%      1.10% # attempts to use FU when none available
system.cpu.iq.fu_full::SimdReduceCmp                0      0.00%      1.10% # attempts to use FU when none available
system.cpu.iq.fu_full::SimdFloatReduceAdd            0      0.00%      1.10% # attempts to use FU when none available
system.cpu.iq.fu_full::SimdFloatReduceCmp            0      0.00%      1.10% # attempts to use FU when none available
system.cpu.iq.fu_full::SimdAes                      0      0.00%      1.10% # attempts to use FU when none available
system.cpu.iq.fu_full::SimdAesMix                   0      0.00%      1.10% # attempts to use FU when none available
system.cpu.iq.fu_full::SimdSha1Hash                 0      0.00%      1.10% # attempts to use FU when none available
system.cpu.iq.fu_full::SimdSha1Hash2                0      0.00%      1.10% # attempts to use FU when none available
system.cpu.iq.fu_full::SimdSha256Hash               0      0.00%      1.10% # attempts to use FU when none available
system.cpu.iq.fu_full::SimdSha256Hash2              0      0.00%      1.10% # attempts to use FU when none available
system.cpu.iq.fu_full::SimdShaSigma2                0      0.00%      1.10% # attempts to use FU when none available
system.cpu.iq.fu_full::SimdShaSigma3                0      0.00%      1.10% # attempts to use FU when none available
system.cpu.iq.fu_full::SimdPredAlu                  0      0.00%      1.10% # attempts to use FU when none available
system.cpu.iq.fu_full::MemRead                    355      0.39%      1.49% # attempts to use FU when none available
system.cpu.iq.fu_full::MemWrite                 89574     98.51%    100.00% # attempts to use FU when none available
system.cpu.iq.fu_full::FloatMemRead                 0      0.00%    100.00% # attempts to use FU when none available
system.cpu.iq.fu_full::FloatMemWrite                0      0.00%    100.00% # attempts to use FU when none available
system.cpu.iq.fu_full::IprAccess                    0      0.00%    100.00% # attempts to use FU when none available
system.cpu.iq.fu_full::InstPrefetch                 0      0.00%    100.00% # attempts to use FU when none available
system.cpu.iq.int_alu_accesses                1383514                       # Number of integer alu accesses
system.cpu.iq.int_inst_queue_reads            7384267                       # Number of integer instruction queue reads
system.cpu.iq.int_inst_queue_wakeup_accesses      1207905                       # Number of integer instruction queue wakeup accesses
system.cpu.iq.int_inst_queue_writes           1689028                       # Number of integer instruction queue writes
system.cpu.iq.iqInstsAdded                    1387122                       # Number of instructions added to the IQ (excludes non-spec)
system.cpu.iq.iqInstsIssued                   1331662                       # Number of instructions issued
system.cpu.iq.iqNonSpecInstsAdded                 195                       # Number of non-speculative instructions added to the IQ
system.cpu.iq.iqSquashedInstsExamined          353388                       # Number of squashed instructions iterated over during squash; mainly for profiling
system.cpu.iq.iqSquashedInstsIssued             21171                       # Number of squashed instructions issued
system.cpu.iq.iqSquashedNonSpecRemoved             33                       # Number of squashed non-spec instructions that were removed
system.cpu.iq.iqSquashedOperandsExamined       359181                       # Number of squashed operands that are examined and possibly removed from graph
system.cpu.iq.issued_per_cycle::samples       4687421                       # Number of insts issued each cycle
system.cpu.iq.issued_per_cycle::mean         0.284093                       # Number of insts issued each cycle
system.cpu.iq.issued_per_cycle::stdev        1.096581                       # Number of insts issued each cycle
system.cpu.iq.issued_per_cycle::underflows            0      0.00%      0.00% # Number of insts issued each cycle
system.cpu.iq.issued_per_cycle::0             4289827     91.52%     91.52% # Number of insts issued each cycle
system.cpu.iq.issued_per_cycle::1              107593      2.30%     93.81% # Number of insts issued each cycle
system.cpu.iq.issued_per_cycle::2               58099      1.24%     95.05% # Number of insts issued each cycle
system.cpu.iq.issued_per_cycle::3               45950      0.98%     96.03% # Number of insts issued each cycle
system.cpu.iq.issued_per_cycle::4               43828      0.94%     96.97% # Number of insts issued each cycle
system.cpu.iq.issued_per_cycle::5               87848      1.87%     98.84% # Number of insts issued each cycle
system.cpu.iq.issued_per_cycle::6               35663      0.76%     99.60% # Number of insts issued each cycle
system.cpu.iq.issued_per_cycle::7                7413      0.16%     99.76% # Number of insts issued each cycle
system.cpu.iq.issued_per_cycle::8               11200      0.24%    100.00% # Number of insts issued each cycle
system.cpu.iq.issued_per_cycle::overflows            0      0.00%    100.00% # Number of insts issued each cycle
system.cpu.iq.issued_per_cycle::min_value            0                       # Number of insts issued each cycle
system.cpu.iq.issued_per_cycle::max_value            8                       # Number of insts issued each cycle
system.cpu.iq.issued_per_cycle::total         4687421                       # Number of insts issued each cycle
system.cpu.iq.rate                           0.279953                       # Inst issue rate
system.cpu.iq.vec_alu_accesses                  39073                       # Number of vector alu accesses
system.cpu.iq.vec_inst_queue_reads              78578                       # Number of vector instruction queue reads
system.cpu.iq.vec_inst_queue_wakeup_accesses        37026                       # Number of vector instruction queue wakeup accesses
system.cpu.iq.vec_inst_queue_writes             51706                       # Number of vector instruction queue writes
system.cpu.itb.accesses                             0                       # DTB accesses
system.cpu.itb.align_faults                         0                       # Number of TLB faults due to alignment restrictions
system.cpu.itb.domain_faults                        0                       # Number of TLB faults due to domain restrictions
system.cpu.itb.flush_entries                        0                       # Number of entries that have been flushed from TLB
system.cpu.itb.flush_tlb                            0                       # Number of times complete TLB was flushed
system.cpu.itb.flush_tlb_asid                       0                       # Number of times TLB was flushed by ASID
system.cpu.itb.flush_tlb_mva                        0                       # Number of times TLB was flushed by MVA
system.cpu.itb.flush_tlb_mva_asid                   0                       # Number of times TLB was flushed by MVA & ASID
system.cpu.itb.hits                                 0                       # DTB hits
system.cpu.itb.inst_accesses                        0                       # ITB inst accesses
system.cpu.itb.inst_hits                            0                       # ITB inst hits
system.cpu.itb.inst_misses                          0                       # ITB inst misses
system.cpu.itb.misses                               0                       # DTB misses
system.cpu.itb.perms_faults                         0                       # Number of TLB faults due to permissions restrictions
system.cpu.itb.prefetch_faults                      0                       # Number of TLB faults due to prefetch
system.cpu.itb.read_accesses                        0                       # DTB read accesses
system.cpu.itb.read_hits                            0                       # DTB read hits
system.cpu.itb.read_misses                          0                       # DTB read misses
system.cpu.itb.stage2_mmu.stage2_tlb.accesses            0                       # DTB accesses
system.cpu.itb.stage2_mmu.stage2_tlb.align_faults            0                       # Number of TLB faults due to alignment restrictions
system.cpu.itb.stage2_mmu.stage2_tlb.domain_faults            0                       # Number of TLB faults due to domain restrictions
system.cpu.itb.stage2_mmu.stage2_tlb.flush_entries            0                       # Number of entries that have been flushed from TLB
system.cpu.itb.stage2_mmu.stage2_tlb.flush_tlb            0                       # Number of times complete TLB was flushed
system.cpu.itb.stage2_mmu.stage2_tlb.flush_tlb_asid            0                       # Number of times TLB was flushed by ASID
system.cpu.itb.stage2_mmu.stage2_tlb.flush_tlb_mva            0                       # Number of times TLB was flushed by MVA
system.cpu.itb.stage2_mmu.stage2_tlb.flush_tlb_mva_asid            0                       # Number of times TLB was flushed by MVA & ASID
system.cpu.itb.stage2_mmu.stage2_tlb.hits            0                       # DTB hits
system.cpu.itb.stage2_mmu.stage2_tlb.inst_accesses            0                       # ITB inst accesses
system.cpu.itb.stage2_mmu.stage2_tlb.inst_hits            0                       # ITB inst hits
system.cpu.itb.stage2_mmu.stage2_tlb.inst_misses            0                       # ITB inst misses
system.cpu.itb.stage2_mmu.stage2_tlb.misses            0                       # DTB misses
system.cpu.itb.stage2_mmu.stage2_tlb.perms_faults            0                       # Number of TLB faults due to permissions restrictions
system.cpu.itb.stage2_mmu.stage2_tlb.prefetch_faults            0                       # Number of TLB faults due to prefetch
system.cpu.itb.stage2_mmu.stage2_tlb.read_accesses            0                       # DTB read accesses
system.cpu.itb.stage2_mmu.stage2_tlb.read_hits            0                       # DTB read hits
system.cpu.itb.stage2_mmu.stage2_tlb.read_misses            0                       # DTB read misses
system.cpu.itb.stage2_mmu.stage2_tlb.walker.walkRequestOrigin_Requested::Data            0                       # Table walker requests started/completed, data/inst
system.cpu.itb.stage2_mmu.stage2_tlb.walker.walkRequestOrigin_Requested::Inst            0                       # Table walker requests started/completed, data/inst
system.cpu.itb.stage2_mmu.stage2_tlb.walker.walkRequestOrigin_Requested::total            0                       # Table walker requests started/completed, data/inst
system.cpu.itb.stage2_mmu.stage2_tlb.walker.walkRequestOrigin_Completed::Data            0                       # Table walker requests started/completed, data/inst
system.cpu.itb.stage2_mmu.stage2_tlb.walker.walkRequestOrigin_Completed::Inst            0                       # Table walker requests started/completed, data/inst
system.cpu.itb.stage2_mmu.stage2_tlb.walker.walkRequestOrigin_Completed::total            0                       # Table walker requests started/completed, data/inst
system.cpu.itb.stage2_mmu.stage2_tlb.walker.walkRequestOrigin::total            0                       # Table walker requests started/completed, data/inst
system.cpu.itb.stage2_mmu.stage2_tlb.walker.walks            0                       # Table walker walks requested
system.cpu.itb.stage2_mmu.stage2_tlb.write_accesses            0                       # DTB write accesses
system.cpu.itb.stage2_mmu.stage2_tlb.write_hits            0                       # DTB write hits
system.cpu.itb.stage2_mmu.stage2_tlb.write_misses            0                       # DTB write misses
system.cpu.itb.walker.walkRequestOrigin_Requested::Data            0                       # Table walker requests started/completed, data/inst
system.cpu.itb.walker.walkRequestOrigin_Requested::Inst            0                       # Table walker requests started/completed, data/inst
system.cpu.itb.walker.walkRequestOrigin_Requested::total            0                       # Table walker requests started/completed, data/inst
system.cpu.itb.walker.walkRequestOrigin_Completed::Data            0                       # Table walker requests started/completed, data/inst
system.cpu.itb.walker.walkRequestOrigin_Completed::Inst            0                       # Table walker requests started/completed, data/inst
system.cpu.itb.walker.walkRequestOrigin_Completed::total            0                       # Table walker requests started/completed, data/inst
system.cpu.itb.walker.walkRequestOrigin::total            0                       # Table walker requests started/completed, data/inst
system.cpu.itb.walker.walks                         0                       # Table walker walks requested
system.cpu.itb.write_accesses                       0                       # DTB write accesses
system.cpu.itb.write_hits                           0                       # DTB write hits
system.cpu.itb.write_misses                         0                       # DTB write misses
system.cpu.memDep0.conflictingLoads                70                       # Number of conflicting loads.
system.cpu.memDep0.conflictingStores              286                       # Number of conflicting stores.
system.cpu.memDep0.insertedLoads                19462                       # Number of loads inserted to the mem dependence unit.
system.cpu.memDep0.insertedStores              822533                       # Number of stores inserted to the mem dependence unit.
system.cpu.misc_regfile_reads                 1324545                       # number of misc regfile reads
system.cpu.misc_regfile_writes                   6031                       # number of misc regfile writes
system.cpu.numCycles                          4756740                       # number of cpu cycles simulated
system.cpu.numWorkItemsCompleted                    0                       # number of work items this cpu completed
system.cpu.numWorkItemsStarted                      0                       # number of work items this cpu started
system.cpu.rename.BlockCycles                 2153805                       # Number of cycles rename is blocking
system.cpu.rename.CommittedMaps                605959                       # Number of HB maps that are committed
system.cpu.rename.IQFullEvents                     59                       # Number of times rename has blocked due to IQ full
system.cpu.rename.IdleCycles                   202563                       # Number of cycles rename is idle
system.cpu.rename.LQFullEvents                     12                       # Number of times rename has blocked due to LQ full
system.cpu.rename.ROBFullEvents                    10                       # Number of times rename has blocked due to ROB full
system.cpu.rename.RenameLookups               3686396                       # Number of register rename lookups that rename has made
system.cpu.rename.RenamedInsts                1479083                       # Number of instructions processed by rename
system.cpu.rename.RenamedOperands              871657                       # Number of destination operands rename has renamed
system.cpu.rename.RunCycles                    220703                       # Number of cycles rename is running
system.cpu.rename.SQFullEvents                2069360                       # Number of times rename has blocked due to SQ full
system.cpu.rename.SquashCycles                  19249                       # Number of cycles rename is squashing
system.cpu.rename.UnblockCycles               2070152                       # Number of cycles rename is unblocking
system.cpu.rename.UndoneMaps                   265698                       # Number of HB maps that are undone due to squashing
system.cpu.rename.int_rename_lookups          3143972                       # Number of integer rename lookups
system.cpu.rename.serializeStallCycles          20949                       # count of cycles rename stalled for serializing inst
system.cpu.rename.serializingInsts                667                       # count of serializing insts renamed
system.cpu.rename.skidInsts                    372322                       # count of insts added to the skid buffer
system.cpu.rename.tempSerializingInsts            197                       # count of temporary serializing insts renamed
system.cpu.rename.vec_rename_lookups            45801                       # Number of vector rename lookups
system.cpu.rob.rob_reads                      5977064                       # The number of ROB reads
system.cpu.rob.rob_writes                     2829843                       # The number of ROB writes
system.cpu.timesIdled                             878                       # Number of times that the entire CPU went into an idle state and unscheduled itself
system.cpu.vec_regfile_reads                    37736                       # number of vector regfile reads
system.cpu.vec_regfile_writes                    6435                       # number of vector regfile writes
system.cpu.workload.numSyscalls                    61                       # Number of system calls
system.membus.snoop_filter.hit_multi_requests            0                       # Number of requests hitting in the snoop filter with multiple (>1) holders of the requested data.
system.membus.snoop_filter.hit_multi_snoops            0                       # Number of snoops hitting in the snoop filter with multiple (>1) holders of the requested data.
system.membus.snoop_filter.hit_single_requests        41715                       # Number of requests hitting in the snoop filter with a single holder of the requested data.
system.membus.snoop_filter.hit_single_snoops            0                       # Number of snoops hitting in the snoop filter with a single holder of the requested data.
system.membus.snoop_filter.tot_requests        116674                       # Total number of requests made to the snoop filter.
system.membus.snoop_filter.tot_snoops               0                       # Total number of snoops made to the snoop filter.
system.tol2bus.snoop_filter.hit_multi_requests            1                       # Number of requests hitting in the snoop filter with multiple (>1) holders of the requested data.
system.tol2bus.snoop_filter.hit_multi_snoops            0                       # Number of snoops hitting in the snoop filter with multiple (>1) holders of the requested data.
system.tol2bus.snoop_filter.hit_single_requests        75274                       # Number of requests hitting in the snoop filter with a single holder of the requested data.
system.tol2bus.snoop_filter.hit_single_snoops          475                       # Number of snoops hitting in the snoop filter with a single holder of the requested data.
system.tol2bus.snoop_filter.tot_requests       151539                       # Total number of requests made to the snoop filter.
system.tol2bus.snoop_filter.tot_snoops            475                       # Total number of snoops made to the snoop filter.
system.membus.trans_dist::ReadResp                991                       # Transaction distribution
system.membus.trans_dist::WritebackDirty        41216                       # Transaction distribution
system.membus.trans_dist::CleanEvict              499                       # Transaction distribution
system.membus.trans_dist::ReadExReq             73861                       # Transaction distribution
system.membus.trans_dist::ReadExResp            73860                       # Transaction distribution
system.membus.trans_dist::ReadSharedReq           991                       # Transaction distribution
system.membus.trans_dist::InvalidateReq           107                       # Transaction distribution
system.membus.pkt_count_system.l2.mem_side::system.mem_ctrls.port       191525                       # Packet count per connected master and slave (bytes)
system.membus.pkt_count::total                 191525                       # Packet count per connected master and slave (bytes)
system.membus.pkt_size_system.l2.mem_side::system.mem_ctrls.port      7428288                       # Cumulative packet size per connected master and slave (bytes)
system.membus.pkt_size::total                 7428288                       # Cumulative packet size per connected master and slave (bytes)
system.membus.snoops                                0                       # Total snoops (count)
system.membus.snoopTraffic                          0                       # Total snoop traffic (bytes)
system.membus.snoop_fanout::samples             74959                       # Request fanout histogram
system.membus.snoop_fanout::mean                    0                       # Request fanout histogram
system.membus.snoop_fanout::stdev                   0                       # Request fanout histogram
system.membus.snoop_fanout::underflows              0      0.00%      0.00% # Request fanout histogram
system.membus.snoop_fanout::0                   74959    100.00%    100.00% # Request fanout histogram
system.membus.snoop_fanout::1                       0      0.00%    100.00% # Request fanout histogram
system.membus.snoop_fanout::overflows               0      0.00%    100.00% # Request fanout histogram
system.membus.snoop_fanout::min_value               0                       # Request fanout histogram
system.membus.snoop_fanout::max_value               0                       # Request fanout histogram
system.membus.snoop_fanout::total               74959                       # Request fanout histogram
system.membus.reqLayer0.occupancy           300234000                       # Layer occupancy (ticks)
system.membus.reqLayer0.utilization              12.6                       # Layer utilization (%)
system.membus.respLayer1.occupancy          389480500                       # Layer occupancy (ticks)
system.membus.respLayer1.utilization             16.4                       # Layer utilization (%)
system.membus.power_state.pwrStateResidencyTicks::UNDEFINED   2378369000                       # Cumulative time (in ticks) in various power states
system.tol2bus.trans_dist::ReadResp              1611                       # Transaction distribution
system.tol2bus.trans_dist::WritebackDirty       115521                       # Transaction distribution
system.tol2bus.trans_dist::WritebackClean          865                       # Transaction distribution
system.tol2bus.trans_dist::CleanEvict            1078                       # Transaction distribution
system.tol2bus.trans_dist::ReadExReq            74547                       # Transaction distribution
system.tol2bus.trans_dist::ReadExResp           74543                       # Transaction distribution
system.tol2bus.trans_dist::ReadCleanReq          1340                       # Transaction distribution
system.tol2bus.trans_dist::ReadSharedReq          271                       # Transaction distribution
system.tol2bus.trans_dist::InvalidateReq          107                       # Transaction distribution
system.tol2bus.trans_dist::InvalidateResp          107                       # Transaction distribution
system.tol2bus.pkt_count_system.cpu.icache.mem_side::system.l2.cpu_side         3545                       # Packet count per connected master and slave (bytes)
system.tol2bus.pkt_count_system.cpu.dcache.mem_side::system.l2.cpu_side       224255                       # Packet count per connected master and slave (bytes)
system.tol2bus.pkt_count::total                227800                       # Packet count per connected master and slave (bytes)
system.tol2bus.pkt_size_system.cpu.icache.mem_side::system.l2.cpu_side       141120                       # Cumulative packet size per connected master and slave (bytes)
system.tol2bus.pkt_size_system.cpu.dcache.mem_side::system.l2.cpu_side      9543616                       # Cumulative packet size per connected master and slave (bytes)
system.tol2bus.pkt_size::total                9684736                       # Cumulative packet size per connected master and slave (bytes)
system.tol2bus.snoops                           42190                       # Total snoops (count)
system.tol2bus.snoopTraffic                   2637824                       # Total snoop traffic (bytes)
system.tol2bus.snoop_fanout::samples           118455                       # Request fanout histogram
system.tol2bus.snoop_fanout::mean            0.004018                       # Request fanout histogram
system.tol2bus.snoop_fanout::stdev           0.063264                       # Request fanout histogram
system.tol2bus.snoop_fanout::underflows             0      0.00%      0.00% # Request fanout histogram
system.tol2bus.snoop_fanout::0                 117979     99.60%     99.60% # Request fanout histogram
system.tol2bus.snoop_fanout::1                    476      0.40%    100.00% # Request fanout histogram
system.tol2bus.snoop_fanout::2                      0      0.00%    100.00% # Request fanout histogram
system.tol2bus.snoop_fanout::overflows              0      0.00%    100.00% # Request fanout histogram
system.tol2bus.snoop_fanout::min_value              0                       # Request fanout histogram
system.tol2bus.snoop_fanout::max_value              1                       # Request fanout histogram
system.tol2bus.snoop_fanout::total             118455                       # Request fanout histogram
system.tol2bus.reqLayer0.occupancy          150939500                       # Layer occupancy (ticks)
system.tol2bus.reqLayer0.utilization              6.3                       # Layer utilization (%)
system.tol2bus.respLayer1.occupancy         112274500                       # Layer occupancy (ticks)
system.tol2bus.respLayer1.utilization             4.7                       # Layer utilization (%)
system.tol2bus.respLayer0.occupancy           2010000                       # Layer occupancy (ticks)
system.tol2bus.respLayer0.utilization             0.1                       # Layer utilization (%)
system.tol2bus.power_state.pwrStateResidencyTicks::UNDEFINED   2378369000                       # Cumulative time (in ticks) in various power states
system.voltage_domain.voltage                       1                       # Voltage in Volts
system.clk_domain.clock                          1000                       # Clock period in ticks
system.l2.demand_hits::.cpu.inst                  467                       # number of demand (read+write) hits
system.l2.demand_hits::.cpu.data                  836                       # number of demand (read+write) hits
system.l2.demand_hits::total                     1303                       # number of demand (read+write) hits
system.l2.overall_hits::.cpu.inst                 467                       # number of overall hits
system.l2.overall_hits::.cpu.data                 836                       # number of overall hits
system.l2.overall_hits::total                    1303                       # number of overall hits
system.l2.demand_misses::.cpu.inst                873                       # number of demand (read+write) misses
system.l2.demand_misses::.cpu.data              73982                       # number of demand (read+write) misses
system.l2.demand_misses::total                  74855                       # number of demand (read+write) misses
system.l2.overall_misses::.cpu.inst               873                       # number of overall misses
system.l2.overall_misses::.cpu.data             73982                       # number of overall misses
system.l2.overall_misses::total                 74855                       # number of overall misses
system.l2.demand_miss_latency::.cpu.inst     69165000                       # number of demand (read+write) miss cycles
system.l2.demand_miss_latency::.cpu.data   6999555500                       # number of demand (read+write) miss cycles
system.l2.demand_miss_latency::total       7068720500                       # number of demand (read+write) miss cycles
system.l2.overall_miss_latency::.cpu.inst     69165000                       # number of overall miss cycles
system.l2.overall_miss_latency::.cpu.data   6999555500                       # number of overall miss cycles
system.l2.overall_miss_latency::total      7068720500                       # number of overall miss cycles
system.l2.demand_accesses::.cpu.inst             1340                       # number of demand (read+write) accesses
system.l2.demand_accesses::.cpu.data            74818                       # number of demand (read+write) accesses
system.l2.demand_accesses::total                76158                       # number of demand (read+write) accesses
system.l2.overall_accesses::.cpu.inst            1340                       # number of overall (read+write) accesses
system.l2.overall_accesses::.cpu.data           74818                       # number of overall (read+write) accesses
system.l2.overall_accesses::total               76158                       # number of overall (read+write) accesses
system.l2.demand_miss_rate::.cpu.inst        0.651493                       # miss rate for demand accesses
system.l2.demand_miss_rate::.cpu.data        0.988826                       # miss rate for demand accesses
system.l2.demand_miss_rate::total            0.982891                       # miss rate for demand accesses
[...]
system.cpu.dcache.demand_miss_latency::total   9832439736                       # number of demand (read+write) miss cycles
system.cpu.dcache.overall_miss_latency::.cpu.data   9832439736                       # number of overall miss cycles
system.cpu.dcache.overall_miss_latency::total   9832439736                       # number of overall miss cycles
system.cpu.dcache.demand_accesses::.cpu.data       633957                       # number of demand (read+write) accesses
system.cpu.dcache.demand_accesses::total       633957                       # number of demand (read+write) accesses
system.cpu.dcache.overall_accesses::.cpu.data       634026                       # number of overall (read+write) accesses
system.cpu.dcache.overall_accesses::total       634026                       # number of overall (read+write) accesses
system.cpu.dcache.demand_miss_rate::.cpu.data     0.253959                       # miss rate for demand accesses
system.cpu.dcache.demand_miss_rate::total     0.253959                       # miss rate for demand accesses
system.cpu.dcache.overall_miss_rate::.cpu.data     0.253939                       # miss rate for overall accesses
system.cpu.dcache.overall_miss_rate::total     0.253939                       # miss rate for overall accesses
system.cpu.dcache.demand_avg_miss_latency::.cpu.data 61071.433587                       # average overall miss latency
system.cpu.dcache.demand_avg_miss_latency::total 61071.433587                       # average overall miss latency
system.cpu.dcache.overall_avg_miss_latency::.cpu.data 61069.537005                       # average overall miss latency
system.cpu.dcache.overall_avg_miss_latency::total 61069.537005                       # average overall miss latency
system.cpu.dcache.blocked_cycles::no_mshrs      3121360                       # number of cycles access was blocked
system.cpu.dcache.blocked_cycles::no_targets            0                       # number of cycles access was blocked
system.cpu.dcache.blocked::no_mshrs             47632                       # number of cycles access was blocked
system.cpu.dcache.blocked::no_targets               0                       # number of cycles access was blocked
system.cpu.dcache.avg_blocked_cycles::no_mshrs    65.530736                       # average number of cycles each access was blocked
system.cpu.dcache.avg_blocked_cycles::no_targets          nan                       # average number of cycles each access was blocked
system.cpu.dcache.writebacks::.writebacks        74305                       # number of writebacks
system.cpu.dcache.writebacks::total             74305                       # number of writebacks
system.cpu.dcache.demand_mshr_hits::.cpu.data        86080                       # number of demand (read+write) MSHR hits
system.cpu.dcache.demand_mshr_hits::total        86080                       # number of demand (read+write) MSHR hits
system.cpu.dcache.overall_mshr_hits::.cpu.data        86080                       # number of overall MSHR hits
system.cpu.dcache.overall_mshr_hits::total        86080                       # number of overall MSHR hits
system.cpu.dcache.demand_mshr_misses::.cpu.data        74919                       # number of demand (read+write) MSHR misses
system.cpu.dcache.demand_mshr_misses::total        74919                       # number of demand (read+write) MSHR misses
system.cpu.dcache.overall_mshr_misses::.cpu.data        74924                       # number of overall MSHR misses
system.cpu.dcache.overall_mshr_misses::total        74924                       # number of overall MSHR misses
system.cpu.dcache.demand_mshr_miss_latency::.cpu.data   7199771155                       # number of demand (read+write) MSHR miss cycles
system.cpu.dcache.demand_mshr_miss_latency::total   7199771155                       # number of demand (read+write) MSHR miss cycles
system.cpu.dcache.overall_mshr_miss_latency::.cpu.data   7200203155                       # number of overall MSHR miss cycles
system.cpu.dcache.overall_mshr_miss_latency::total   7200203155                       # number of overall MSHR miss cycles
system.cpu.dcache.demand_mshr_miss_rate::.cpu.data     0.118177                       # mshr miss rate for demand accesses
system.cpu.dcache.demand_mshr_miss_rate::total     0.118177                       # mshr miss rate for demand accesses
system.cpu.dcache.overall_mshr_miss_rate::.cpu.data     0.118172                       # mshr miss rate for overall accesses
system.cpu.dcache.overall_mshr_miss_rate::total     0.118172                       # mshr miss rate for overall accesses
system.cpu.dcache.demand_avg_mshr_miss_latency::.cpu.data 96100.737530                       # average overall mshr miss latency
system.cpu.dcache.demand_avg_mshr_miss_latency::total 96100.737530                       # average overall mshr miss latency
system.cpu.dcache.overall_avg_mshr_miss_latency::.cpu.data 96100.090158                       # average overall mshr miss latency
system.cpu.dcache.overall_avg_mshr_miss_latency::total 96100.090158                       # average overall mshr miss latency
system.cpu.dcache.replacements                  74409                       # number of replacements
system.cpu.dcache.ReadReq_hits::.cpu.data        16606                       # number of ReadReq hits
system.cpu.dcache.ReadReq_hits::total           16606                       # number of ReadReq hits
system.cpu.dcache.ReadReq_misses::.cpu.data          524                       # number of ReadReq misses
system.cpu.dcache.ReadReq_misses::total           524                       # number of ReadReq misses
system.cpu.dcache.ReadReq_miss_latency::.cpu.data     26432000                       # number of ReadReq miss cycles
system.cpu.dcache.ReadReq_miss_latency::total     26432000                       # number of ReadReq miss cycles
system.cpu.dcache.ReadReq_accesses::.cpu.data        17130                       # number of ReadReq accesses(hits+misses)
system.cpu.dcache.ReadReq_accesses::total        17130                       # number of ReadReq accesses(hits+misses)
system.cpu.dcache.ReadReq_miss_rate::.cpu.data     0.030590                       # miss rate for ReadReq accesses
system.cpu.dcache.ReadReq_miss_rate::total     0.030590                       # miss rate for ReadReq accesses
system.cpu.dcache.ReadReq_avg_miss_latency::.cpu.data 50442.748092                       # average ReadReq miss latency
system.cpu.dcache.ReadReq_avg_miss_latency::total 50442.748092                       # average ReadReq miss latency
system.cpu.dcache.ReadReq_mshr_hits::.cpu.data          259                       # number of ReadReq MSHR hits
system.cpu.dcache.ReadReq_mshr_hits::total          259                       # number of ReadReq MSHR hits
system.cpu.dcache.ReadReq_mshr_misses::.cpu.data          265                       # number of ReadReq MSHR misses
system.cpu.dcache.ReadReq_mshr_misses::total          265                       # number of ReadReq MSHR misses
system.cpu.dcache.ReadReq_mshr_miss_latency::.cpu.data     11620500                       # number of ReadReq MSHR miss cycles
system.cpu.dcache.ReadReq_mshr_miss_latency::total     11620500                       # number of ReadReq MSHR miss cycles
system.cpu.dcache.ReadReq_mshr_miss_rate::.cpu.data     0.015470                       # mshr miss rate for ReadReq accesses
system.cpu.dcache.ReadReq_mshr_miss_rate::total     0.015470                       # mshr miss rate for ReadReq accesses
system.cpu.dcache.ReadReq_avg_mshr_miss_latency::.cpu.data 43850.943396                       # average ReadReq mshr miss latency
system.cpu.dcache.ReadReq_avg_mshr_miss_latency::total 43850.943396                       # average ReadReq mshr miss latency
system.cpu.dcache.WriteReq_hits::.cpu.data       456332                       # number of WriteReq hits
system.cpu.dcache.WriteReq_hits::total         456332                       # number of WriteReq hits
system.cpu.dcache.WriteReq_misses::.cpu.data       160374                       # number of WriteReq misses
system.cpu.dcache.WriteReq_misses::total       160374                       # number of WriteReq misses
system.cpu.dcache.WriteReq_miss_latency::.cpu.data   9802788782                       # number of WriteReq miss cycles
system.cpu.dcache.WriteReq_miss_latency::total   9802788782                       # number of WriteReq miss cycles
system.cpu.dcache.WriteReq_accesses::.cpu.data       616706                       # number of WriteReq accesses(hits+misses)
system.cpu.dcache.WriteReq_accesses::total       616706                       # number of WriteReq accesses(hits+misses)
system.cpu.dcache.WriteReq_miss_rate::.cpu.data     0.260049                       # miss rate for WriteReq accesses
system.cpu.dcache.WriteReq_miss_rate::total     0.260049                       # miss rate for WriteReq accesses
system.cpu.dcache.WriteReq_avg_miss_latency::.cpu.data 61124.551249                       # average WriteReq miss latency
system.cpu.dcache.WriteReq_avg_miss_latency::total 61124.551249                       # average WriteReq miss latency
system.cpu.dcache.WriteReq_mshr_hits::.cpu.data        85821                       # number of WriteReq MSHR hits
system.cpu.dcache.WriteReq_mshr_hits::total        85821                       # number of WriteReq MSHR hits
system.cpu.dcache.WriteReq_mshr_misses::.cpu.data        74553                       # number of WriteReq MSHR misses
system.cpu.dcache.WriteReq_mshr_misses::total        74553                       # number of WriteReq MSHR misses
system.cpu.dcache.WriteReq_mshr_miss_latency::.cpu.data   7185032701                       # number of WriteReq MSHR miss cycles
system.cpu.dcache.WriteReq_mshr_miss_latency::total   7185032701                       # number of WriteReq MSHR miss cycles
system.cpu.dcache.WriteReq_mshr_miss_rate::.cpu.data     0.120889                       # mshr miss rate for WriteReq accesses
system.cpu.dcache.WriteReq_mshr_miss_rate::total     0.120889                       # mshr miss rate for WriteReq accesses
system.cpu.dcache.WriteReq_avg_mshr_miss_latency::.cpu.data 96374.830000                       # average WriteReq mshr miss latency
system.cpu.dcache.WriteReq_avg_mshr_miss_latency::total 96374.830000                       # average WriteReq mshr miss latency
system.cpu.dcache.SoftPFReq_hits::.cpu.data           64                       # number of SoftPFReq hits
system.cpu.dcache.SoftPFReq_hits::total            64                       # number of SoftPFReq hits
system.cpu.dcache.SoftPFReq_misses::.cpu.data            5                       # number of SoftPFReq misses
system.cpu.dcache.SoftPFReq_misses::total            5                       # number of SoftPFReq misses
system.cpu.dcache.SoftPFReq_accesses::.cpu.data           69                       # number of SoftPFReq accesses(hits+misses)
system.cpu.dcache.SoftPFReq_accesses::total           69                       # number of SoftPFReq accesses(hits+misses)
system.cpu.dcache.SoftPFReq_miss_rate::.cpu.data     0.072464                       # miss rate for SoftPFReq accesses
system.cpu.dcache.SoftPFReq_miss_rate::total     0.072464                       # miss rate for SoftPFReq accesses
system.cpu.dcache.SoftPFReq_mshr_misses::.cpu.data            5                       # number of SoftPFReq MSHR misses
system.cpu.dcache.SoftPFReq_mshr_misses::total            5                       # number of SoftPFReq MSHR misses
system.cpu.dcache.SoftPFReq_mshr_miss_latency::.cpu.data       432000                       # number of SoftPFReq MSHR miss cycles
system.cpu.dcache.SoftPFReq_mshr_miss_latency::total       432000                       # number of SoftPFReq MSHR miss cycles
system.cpu.dcache.SoftPFReq_mshr_miss_rate::.cpu.data     0.072464                       # mshr miss rate for SoftPFReq accesses
system.cpu.dcache.SoftPFReq_mshr_miss_rate::total     0.072464                       # mshr miss rate for SoftPFReq accesses
system.cpu.dcache.SoftPFReq_avg_mshr_miss_latency::.cpu.data        86400                       # average SoftPFReq mshr miss latency
system.cpu.dcache.SoftPFReq_avg_mshr_miss_latency::total        86400                       # average SoftPFReq mshr miss latency
system.cpu.dcache.WriteLineReq_hits::.cpu.data           20                       # number of WriteLineReq hits
system.cpu.dcache.WriteLineReq_hits::total           20                       # number of WriteLineReq hits
system.cpu.dcache.WriteLineReq_misses::.cpu.data          101                       # number of WriteLineReq misses
system.cpu.dcache.WriteLineReq_misses::total          101                       # number of WriteLineReq misses
system.cpu.dcache.WriteLineReq_miss_latency::.cpu.data      3218954                       # number of WriteLineReq miss cycles
system.cpu.dcache.WriteLineReq_miss_latency::total      3218954                       # number of WriteLineReq miss cycles
system.cpu.dcache.WriteLineReq_accesses::.cpu.data          121                       # number of WriteLineReq accesses(hits+misses)
system.cpu.dcache.WriteLineReq_accesses::total          121                       # number of WriteLineReq accesses(hits+misses)
system.cpu.dcache.WriteLineReq_miss_rate::.cpu.data     0.834711                       # miss rate for WriteLineReq accesses
system.cpu.dcache.WriteLineReq_miss_rate::total     0.834711                       # miss rate for WriteLineReq accesses
system.cpu.dcache.WriteLineReq_avg_miss_latency::.cpu.data 31870.831683                       # average WriteLineReq miss latency
system.cpu.dcache.WriteLineReq_avg_miss_latency::total 31870.831683                       # average WriteLineReq miss latency
system.cpu.dcache.WriteLineReq_mshr_misses::.cpu.data          101                       # number of WriteLineReq MSHR misses
system.cpu.dcache.WriteLineReq_mshr_misses::total          101                       # number of WriteLineReq MSHR misses
system.cpu.dcache.WriteLineReq_mshr_miss_latency::.cpu.data      3117954                       # number of WriteLineReq MSHR miss cycles
system.cpu.dcache.WriteLineReq_mshr_miss_latency::total      3117954                       # number of WriteLineReq MSHR miss cycles
system.cpu.dcache.WriteLineReq_mshr_miss_rate::.cpu.data     0.834711                       # mshr miss rate for WriteLineReq accesses
system.cpu.dcache.WriteLineReq_mshr_miss_rate::total     0.834711                       # mshr miss rate for WriteLineReq accesses
system.cpu.dcache.WriteLineReq_avg_mshr_miss_latency::.cpu.data 30870.831683                       # average WriteLineReq mshr miss latency
system.cpu.dcache.WriteLineReq_avg_mshr_miss_latency::total 30870.831683                       # average WriteLineReq mshr miss latency
system.cpu.dcache.LoadLockedReq_hits::.cpu.data          127                       # number of LoadLockedReq hits
system.cpu.dcache.LoadLockedReq_hits::total          127                       # number of LoadLockedReq hits
system.cpu.dcache.LoadLockedReq_misses::.cpu.data            1                       # number of LoadLockedReq misses
system.cpu.dcache.LoadLockedReq_misses::total            1                       # number of LoadLockedReq misses
system.cpu.dcache.LoadLockedReq_miss_latency::.cpu.data       312500                       # number of LoadLockedReq miss cycles
system.cpu.dcache.LoadLockedReq_miss_latency::total       312500                       # number of LoadLockedReq miss cycles
system.cpu.dcache.LoadLockedReq_accesses::.cpu.data          128                       # number of LoadLockedReq accesses(hits+misses)
system.cpu.dcache.LoadLockedReq_accesses::total          128                       # number of LoadLockedReq accesses(hits+misses)
system.cpu.dcache.LoadLockedReq_miss_rate::.cpu.data     0.007812                       # miss rate for LoadLockedReq accesses
system.cpu.dcache.LoadLockedReq_miss_rate::total     0.007812                       # miss rate for LoadLockedReq accesses
system.cpu.dcache.LoadLockedReq_avg_miss_latency::.cpu.data       312500                       # average LoadLockedReq miss latency
system.cpu.dcache.LoadLockedReq_avg_miss_latency::total       312500                       # average LoadLockedReq miss latency
system.cpu.dcache.LoadLockedReq_mshr_misses::.cpu.data            1                       # number of LoadLockedReq MSHR misses
system.cpu.dcache.LoadLockedReq_mshr_misses::total            1                       # number of LoadLockedReq MSHR misses
system.cpu.dcache.LoadLockedReq_mshr_miss_latency::.cpu.data       311500                       # number of LoadLockedReq MSHR miss cycles
system.cpu.dcache.LoadLockedReq_mshr_miss_latency::total       311500                       # number of LoadLockedReq MSHR miss cycles
system.cpu.dcache.LoadLockedReq_mshr_miss_rate::.cpu.data     0.007812                       # mshr miss rate for LoadLockedReq accesses
system.cpu.dcache.LoadLockedReq_mshr_miss_rate::total     0.007812                       # mshr miss rate for LoadLockedReq accesses
system.cpu.dcache.LoadLockedReq_avg_mshr_miss_latency::.cpu.data       311500                       # average LoadLockedReq mshr miss latency
system.cpu.dcache.LoadLockedReq_avg_mshr_miss_latency::total       311500                       # average LoadLockedReq mshr miss latency
system.cpu.dcache.StoreCondReq_hits::.cpu.data          100                       # number of StoreCondReq hits
system.cpu.dcache.StoreCondReq_hits::total          100                       # number of StoreCondReq hits
system.cpu.dcache.StoreCondReq_accesses::.cpu.data          100                       # number of StoreCondReq accesses(hits+misses)
system.cpu.dcache.StoreCondReq_accesses::total          100                       # number of StoreCondReq accesses(hits+misses)
system.cpu.dcache.power_state.pwrStateResidencyTicks::UNDEFINED   2378369000                       # Cumulative time (in ticks) in various power states
system.cpu.dcache.tags.tagsinuse           502.584179                       # Cycle average of tags in use
system.cpu.dcache.tags.total_refs              548170                       # Total number of references to valid blocks.
system.cpu.dcache.tags.sampled_refs             74921                       # Sample count of references to valid blocks.
system.cpu.dcache.tags.avg_refs              7.316640                       # Average number of references to valid blocks.
system.cpu.dcache.tags.warmup_cycle            176500                       # Cycle when the warmup percentage was hit.
system.cpu.dcache.tags.occ_blocks::.cpu.data   502.584179                       # Average occupied blocks per requestor
system.cpu.dcache.tags.occ_percent::.cpu.data     0.981610                       # Average percentage of cache occupancy
system.cpu.dcache.tags.occ_percent::total     0.981610                       # Average percentage of cache occupancy
system.cpu.dcache.tags.occ_task_id_blocks::1024          512                       # Occupied blocks per task id
system.cpu.dcache.tags.age_task_id_blocks_1024::0          272                       # Occupied blocks per task id
system.cpu.dcache.tags.age_task_id_blocks_1024::1          240                       # Occupied blocks per task id
system.cpu.dcache.tags.occ_task_id_percent::1024            1                       # Percentage of cache occupancy per task id
system.cpu.dcache.tags.tag_accesses           1343429                       # Number of tag accesses
system.cpu.dcache.tags.data_accesses          1343429                       # Number of data accesses
system.cpu.dcache.tags.power_state.pwrStateResidencyTicks::UNDEFINED   2378369000                       # Cumulative time (in ticks) in various power states
system.cpu.power_state.pwrStateResidencyTicks::ON   2378369000                       # Cumulative time (in ticks) in various power states

---------- End Simulation Statistics   ----------
