
---------- Begin Simulation Statistics ----------
final_tick                                  191945000                       # Number of ticks from beginning of simulation (restored from checkpoints and never reset)
host_inst_rate                                 174218                       # Simulator instruction rate (inst/s)
host_mem_usage                                 851332                       # Number of bytes of host memory used
host_op_rate                                   194334                       # Simulator op (including micro ops) rate (op/s)
host_seconds                                     2.87                       # Real time elapsed on the host
host_tick_rate                               66875879                       # Simulator tick rate (ticks/s)
sim_freq                                 1000000000000                       # Frequency of simulated ticks
sim_insts                                      500003                       # Number of instructions simulated
sim_ops                                        557766                       # Number of ops (including micro ops) simulated
sim_seconds                                  0.000192                       # Number of seconds simulated
sim_ticks                                   191945000                       # Number of ticks simulated
system.cpu.branchPred.BTBCorrect                    0                       # Number of correct BTB predictions (this stat may not work properly.
system.cpu.branchPred.BTBHitPct             97.025333                       # BTB Hit Percentage
system.cpu.branchPred.BTBHits                   56493                       # Number of BTB hits
system.cpu.branchPred.BTBLookups                58225                       # Number of BTB lookups
system.cpu.branchPred.RASInCorrect                  1                       # Number of incorrect RAS predictions.
system.cpu.branchPred.condIncorrect              3295                       # Number of conditional branches incorrect
system.cpu.branchPred.condPredicted             97181                       # Number of conditional branches predicted
system.cpu.branchPred.indirectHits               1384                       # Number of indirect target hits.
system.cpu.branchPred.indirectLookups            1832                       # Number of indirect predictor lookups.
system.cpu.branchPred.indirectMisses              448                       # Number of indirect misses.
system.cpu.branchPred.lookups                  126384                       # Number of BP lookups
system.cpu.branchPred.usedRAS                    7258                       # Number of times the RAS was used to get a target.
system.cpu.branchPredindirectMispredicted          104                       # Number of mispredicted indirect branches.
system.cpu.cc_regfile_reads                    200826                       # number of cc regfile reads
system.cpu.cc_regfile_writes                   197683                       # number of cc regfile writes
system.cpu.commit.amos                              0                       # Number of atomic instructions committed
system.cpu.commit.branchMispredicts              2833                       # The number of times a branch was mispredicted
system.cpu.commit.branches                     108156                       # Number of branches committed
system.cpu.commit.bw_lim_events                 27830                       # number cycles where commit BW limit reached
system.cpu.commit.commitNonSpecStalls             282                       # The number of times commit has been forced to stall to communicate backwards
system.cpu.commit.commitSquashedInsts           55502                       # The number of squashed insts skipped by commit
system.cpu.commit.committedInsts               500917                       # Number of instructions committed
system.cpu.commit.committedOps                 558680                       # Number of ops (including micro ops) committed
system.cpu.commit.committed_per_cycle::samples       313480                       # Number of insts commited each cycle
system.cpu.commit.committed_per_cycle::mean     1.782187                       # Number of insts commited each cycle
system.cpu.commit.committed_per_cycle::stdev     2.529909                       # Number of insts commited each cycle
system.cpu.commit.committed_per_cycle::underflows            0      0.00%      0.00% # Number of insts commited each cycle
system.cpu.commit.committed_per_cycle::0       140521     44.83%     44.83% # Number of insts commited each cycle
system.cpu.commit.committed_per_cycle::1        68730     21.92%     66.75% # Number of insts commited each cycle
system.cpu.commit.committed_per_cycle::2        30180      9.63%     76.38% # Number of insts commited each cycle
system.cpu.commit.committed_per_cycle::3        17288      5.51%     81.89% # Number of insts commited each cycle
system.cpu.commit.committed_per_cycle::4        10767      3.43%     85.33% # Number of insts commited each cycle
system.cpu.commit.committed_per_cycle::5         5148      1.64%     86.97% # Number of insts commited each cycle
system.cpu.commit.committed_per_cycle::6         4834      1.54%     88.51% # Number of insts commited each cycle
system.cpu.commit.committed_per_cycle::7         8182      2.61%     91.12% # Number of insts commited each cycle
system.cpu.commit.committed_per_cycle::8        27830      8.88%    100.00% # Number of insts commited each cycle
system.cpu.commit.committed_per_cycle::overflows            0      0.00%    100.00% # Number of insts commited each cycle
system.cpu.commit.committed_per_cycle::min_value            0                       # Number of insts commited each cycle
system.cpu.commit.committed_per_cycle::max_value            8                       # Number of insts commited each cycle
system.cpu.commit.committed_per_cycle::total       313480                       # Number of insts commited each cycle
system.cpu.commit.fp_insts                          0                       # Number of committed floating point instructions.
system.cpu.commit.function_calls                 6254                       # Number of function calls committed.
system.cpu.commit.int_insts                    493178                       # Number of committed integer instructions.
system.cpu.commit.loads                         86590                       # Number of loads committed
system.cpu.commit.membars                         271                       # Number of memory barriers committed
system.cpu.commit.op_class_0::No_OpClass          185      0.03%      0.03% # Class of committed instruction
system.cpu.commit.op_class_0::IntAlu           402415     72.03%     72.06% # Class of committed instruction
system.cpu.commit.op_class_0::IntMult            1715      0.31%     72.37% # Class of committed instruction
system.cpu.commit.op_class_0::IntDiv              422      0.08%     72.45% # Class of committed instruction
system.cpu.commit.op_class_0::FloatAdd            201      0.04%     72.48% # Class of committed instruction
system.cpu.commit.op_class_0::FloatCmp              6      0.00%     72.48% # Class of committed instruction
system.cpu.commit.op_class_0::FloatCvt              0      0.00%     72.48% # Class of committed instruction
system.cpu.commit.op_class_0::FloatMult            15      0.00%     72.48% # Class of committed instruction
system.cpu.commit.op_class_0::FloatMultAcc           21      0.00%     72.49% # Class of committed instruction
system.cpu.commit.op_class_0::FloatDiv              9      0.00%     72.49% # Class of committed instruction
system.cpu.commit.op_class_0::FloatMisc           749      0.13%     72.62% # Class of committed instruction
system.cpu.commit.op_class_0::FloatSqrt             0      0.00%     72.62% # Class of committed instruction
system.cpu.commit.op_class_0::SimdAdd             433      0.08%     72.70% # Class of committed instruction
system.cpu.commit.op_class_0::SimdAddAcc            0      0.00%     72.70% # Class of committed instruction
system.cpu.commit.op_class_0::SimdAlu             647      0.12%     72.82% # Class of committed instruction
system.cpu.commit.op_class_0::SimdCmp             598      0.11%     72.92% # Class of committed instruction
system.cpu.commit.op_class_0::SimdCvt               0      0.00%     72.92% # Class of committed instruction
system.cpu.commit.op_class_0::SimdMisc            526      0.09%     73.02% # Class of committed instruction
system.cpu.commit.op_class_0::SimdMult              0      0.00%     73.02% # Class of committed instruction
system.cpu.commit.op_class_0::SimdMultAcc            0      0.00%     73.02% # Class of committed instruction
system.cpu.commit.op_class_0::SimdShift             0      0.00%     73.02% # Class of committed instruction
system.cpu.commit.op_class_0::SimdShiftAcc            0      0.00%     73.02% # Class of committed instruction
system.cpu.commit.op_class_0::SimdDiv               0      0.00%     73.02% # Class of committed instruction
system.cpu.commit.op_class_0::SimdSqrt              0      0.00%     73.02% # Class of committed instruction
system.cpu.commit.op_class_0::SimdFloatAdd            0      0.00%     73.02% # Class of committed instruction
system.cpu.commit.op_class_0::SimdFloatAlu            0      0.00%     73.02% # Class of committed instruction
system.cpu.commit.op_class_0::SimdFloatCmp            0      0.00%     73.02% # Class of committed instruction
system.cpu.commit.op_class_0::SimdFloatCvt            0      0.00%     73.02% # Class of committed instruction
system.cpu.commit.op_class_0::SimdFloatDiv            0      0.00%     73.02% # Class of committed instruction
system.cpu.commit.op_class_0::SimdFloatMisc            0      0.00%     73.02% # Class of committed instruction
system.cpu.commit.op_class_0::SimdFloatMult            0      0.00%     73.02% # Class of committed instruction
system.cpu.commit.op_class_0::SimdFloatMultAcc            0      0.00%     73.02% # Class of committed instruction
system.cpu.commit.op_class_0::SimdFloatSqrt            0      0.00%     73.02% # Class of committed instruction
system.cpu.commit.op_class_0::SimdReduceAdd            0      0.00%     73.02% # Class of committed instruction
system.cpu.commit.op_class_0::SimdReduceAlu            0      0.00%     73.02% # Class of committed instruction
system.cpu.commit.op_class_0::SimdReduceCmp            0      0.00%     73.02% # Class of committed instruction
system.cpu.commit.op_class_0::SimdFloatReduceAdd            0      0.00%     73.02% # Class of committed instruction
system.cpu.commit.op_class_0::SimdFloatReduceCmp            0      0.00%     73.02% # Class of committed instruction
system.cpu.commit.op_class_0::SimdAes               0      0.00%     73.02% # Class of committed instruction
system.cpu.commit.op_class_0::SimdAesMix            0      0.00%     73.02% # Class of committed instruction
system.cpu.commit.op_class_0::SimdSha1Hash            0      0.00%     73.02% # Class of committed instruction
system.cpu.commit.op_class_0::SimdSha1Hash2            0      0.00%     73.02% # Class of committed instruction
system.cpu.commit.op_class_0::SimdSha256Hash            0      0.00%     73.02% # Class of committed instruction
system.cpu.commit.op_class_0::SimdSha256Hash2            0      0.00%     73.02% # Class of committed instruction
system.cpu.commit.op_class_0::SimdShaSigma2            0      0.00%     73.02% # Class of committed instruction
system.cpu.commit.op_class_0::SimdShaSigma3            0      0.00%     73.02% # Class of committed instruction
system.cpu.commit.op_class_0::SimdPredAlu            0      0.00%     73.02% # Class of committed instruction
system.cpu.commit.op_class_0::MemRead           86590     15.50%     88.52% # Class of committed instruction
system.cpu.commit.op_class_0::MemWrite          64148     11.48%    100.00% # Class of committed instruction
system.cpu.commit.op_class_0::FloatMemRead            0      0.00%    100.00% # Class of committed instruction
system.cpu.commit.op_class_0::FloatMemWrite            0      0.00%    100.00% # Class of committed instruction
system.cpu.commit.op_class_0::IprAccess             0      0.00%    100.00% # Class of committed instruction
system.cpu.commit.op_class_0::InstPrefetch            0      0.00%    100.00% # Class of committed instruction
system.cpu.commit.op_class_0::total            558680                       # Class of committed instruction
system.cpu.commit.refs                         150738                       # Number of memory references committed
system.cpu.commit.swp_count                         0                       # Number of s/w prefetches committed
system.cpu.commit.vec_insts                      6484                       # Number of committed Vector instructions.
system.cpu.committedInsts                      500003                       # Number of Instructions Simulated
system.cpu.committedOps                        557766                       # Number of Ops (including micro ops) Simulated
system.cpu.cpi                               0.767779                       # CPI: Cycles Per Instruction
system.cpu.cpi_total                         0.767779                       # CPI: Total CPI of All Threads
system.cpu.decode.BlockedCycles                 63084                       # Number of cycles decode is blocked
system.cpu.decode.BranchMispred                   469                       # Number of times decode detected a branch misprediction
system.cpu.decode.BranchResolved                56183                       # Number of times decode resolved a branch
system.cpu.decode.DecodedInsts                 636153                       # Number of instructions handled by decode
system.cpu.decode.IdleCycles                   129071                       # Number of cycles decode is idle
system.cpu.decode.RunCycles                    123253                       # Number of cycles decode is running
system.cpu.decode.SquashCycles                   2944                       # Number of cycles decode is squashing
system.cpu.decode.SquashedInsts                  1677                       # Number of squashed instructions handled by decode
system.cpu.decode.UnblockCycles                  3509                       # Number of cycles decode is unblocking
system.cpu.dtb.accesses                             0                       # DTB accesses
system.cpu.dtb.align_faults                         0                       # Number of TLB faults due to alignment restrictions
system.cpu.dtb.domain_faults                        0                       # Number of TLB faults due to domain restrictions
system.cpu.dtb.flush_entries                        0                       # Number of entries that have been flushed from TLB
system.cpu.dtb.flush_tlb                            0                       # Number of times complete TLB was flushed
system.cpu.dtb.flush_tlb_asid                       0                       # Number of times TLB was flushed by ASID
system.cpu.dtb.flush_tlb_mva                        0                       # Number of times TLB was flushed by MVA
system.cpu.dtb.flush_tlb_mva_asid                   0                       # Number of times TLB was flushed by MVA & ASID
system.cpu.dtb.hits                                 0                       # DTB hits
system.cpu.dtb.inst_accesses                        0                       # ITB inst accesses
system.cpu.dtb.inst_hits                            0                       # ITB inst hits
system.cpu.dtb.inst_misses                          0                       # ITB inst misses
system.cpu.dtb.misses                               0                       # DTB misses
system.cpu.dtb.perms_faults                         0                       # Number of TLB faults due to permissions restrictions
system.cpu.dtb.prefetch_faults                      0                       # Number of TLB faults due to prefetch
system.cpu.dtb.read_accesses                        0                       # DTB read accesses
system.cpu.dtb.read_hits                            0                       # DTB read hits
system.cpu.dtb.read_misses                          0                       # DTB read misses
system.cpu.dtb.stage2_mmu.stage2_tlb.accesses            0                       # DTB accesses
system.cpu.dtb.stage2_mmu.stage2_tlb.align_faults            0                       # Number of TLB faults due to alignment restrictions
system.cpu.dtb.stage2_mmu.stage2_tlb.domain_faults            0                       # Number of TLB faults due to domain restrictions
system.cpu.dtb.stage2_mmu.stage2_tlb.flush_entries            0                       # Number of entries that have been flushed from TLB
system.cpu.dtb.stage2_mmu.stage2_tlb.flush_tlb            0                       # Number of times complete TLB was flushed
system.cpu.dtb.stage2_mmu.stage2_tlb.flush_tlb_asid            0                       # Number of times TLB was flushed by ASID
system.cpu.dtb.stage2_mmu.stage2_tlb.flush_tlb_mva            0                       # Number of times TLB was flushed by MVA
system.cpu.dtb.stage2_mmu.stage2_tlb.flush_tlb_mva_asid            0                       # Number of times TLB was flushed by MVA & ASID
system.cpu.dtb.stage2_mmu.stage2_tlb.hits            0                       # DTB hits
system.cpu.dtb.stage2_mmu.stage2_tlb.inst_accesses            0                       # ITB inst accesses
system.cpu.dtb.stage2_mmu.stage2_tlb.inst_hits            0                       # ITB inst hits
system.cpu.dtb.stage2_mmu.stage2_tlb.inst_misses            0                       # ITB inst misses
system.cpu.dtb.stage2_mmu.stage2_tlb.misses            0                       # DTB misses
system.cpu.dtb.stage2_mmu.stage2_tlb.perms_faults            0                       # Number of TLB faults due to permissions restrictions
system.cpu.dtb.stage2_mmu.stage2_tlb.prefetch_faults            0                       # Number of TLB faults due to prefetch
system.cpu.dtb.stage2_mmu.stage2_tlb.read_accesses            0                       # DTB read accesses
system.cpu.dtb.stage2_mmu.stage2_tlb.read_hits            0                       # DTB read hits
system.cpu.dtb.stage2_mmu.stage2_tlb.read_misses            0                       # DTB read misses
system.cpu.dtb.stage2_mmu.stage2_tlb.walker.walkRequestOrigin_Requested::Data            0                       # Table walker requests started/completed, data/inst
system.cpu.dtb.stage2_mmu.stage2_tlb.walker.walkRequestOrigin_Requested::Inst            0                       # Table walker requests started/completed, data/inst
system.cpu.dtb.stage2_mmu.stage2_tlb.walker.walkRequestOrigin_Requested::total            0                       # Table walker requests started/completed, data/inst
system.cpu.dtb.stage2_mmu.stage2_tlb.walker.walkRequestOrigin_Completed::Data            0                       # Table walker requests started/completed, data/inst
system.cpu.dtb.stage2_mmu.stage2_tlb.walker.walkRequestOrigin_Completed::Inst            0                       # Table walker requests started/completed, data/inst
system.cpu.dtb.stage2_mmu.stage2_tlb.walker.walkRequestOrigin_Completed::total            0                       # Table walker requests started/completed, data/inst
system.cpu.dtb.stage2_mmu.stage2_tlb.walker.walkRequestOrigin::total            0                       # Table walker requests started/completed, data/inst
system.cpu.dtb.stage2_mmu.stage2_tlb.walker.walks            0                       # Table walker walks requested
system.cpu.dtb.stage2_mmu.stage2_tlb.write_accesses            0                       # DTB write accesses
system.cpu.dtb.stage2_mmu.stage2_tlb.write_hits            0                       # DTB write hits
system.cpu.dtb.stage2_mmu.stage2_tlb.write_misses            0                       # DTB write misses
system.cpu.dtb.walker.walkRequestOrigin_Requested::Data            0                       # Table walker requests started/completed, data/inst
system.cpu.dtb.walker.walkRequestOrigin_Requested::Inst            0                       # Table walker requests started/completed, data/inst
system.cpu.dtb.walker.walkRequestOrigin_Requested::total            0                       # Table walker requests started/completed, data/inst
system.cpu.dtb.walker.walkRequestOrigin_Completed::Data            0                       # Table walker requests started/completed, data/inst
system.cpu.dtb.walker.walkRequestOrigin_Completed::Inst            0                       # Table walker requests started/completed, data/inst
system.cpu.dtb.walker.walkRequestOrigin_Completed::total            0                       # Table walker requests started/completed, data/inst
system.cpu.dtb.walker.walkRequestOrigin::total            0                       # Table walker requests started/completed, data/inst
system.cpu.dtb.walker.walks                         0                       # Table walker walks requested
system.cpu.dtb.write_accesses                       0                       # DTB write accesses
system.cpu.dtb.write_hits                           0                       # DTB write hits
system.cpu.dtb.write_misses                         0                       # DTB write misses
system.cpu.fetch.Branches                      126384                       # Number of branches that fetch encountered
system.cpu.fetch.CacheLines                     96808                       # Number of cache lines fetched
system.cpu.fetch.Cycles                        177136                       # Number of cycles fetch has run and was not squashing or blocked
system.cpu.fetch.IcacheSquashes                  1648                       # Number of outstanding Icache misses that were squashed
system.cpu.fetch.Insts                         582593                       # Number of instructions fetch has processed
system.cpu.fetch.MiscStallCycles                   11                       # Number of cycles fetch has spent waiting on interrupts, or bad addresses, or out of MSHRs
system.cpu.fetch.SquashCycles                    6812                       # Number of cycles fetch has spent squashing
system.cpu.fetch.branchRate                  0.329218                       # Number of branch fetches per cycle
system.cpu.fetch.icacheStallCycles             141308                       # Number of cycles fetch is stalled on an Icache miss
system.cpu.fetch.predictedBranches              65135                       # Number of branches that fetch has predicted taken
system.cpu.fetch.rate                        1.517596                       # Number of inst fetches per cycle
system.cpu.fetch.rateDist::samples             321861                       # Number of instructions fetched each cycle (Total)
system.cpu.fetch.rateDist::mean              2.022994                       # Number of instructions fetched each cycle (Total)
system.cpu.fetch.rateDist::stdev             2.939046                       # Number of instructions fetched each cycle (Total)
system.cpu.fetch.rateDist::underflows               0      0.00%      0.00% # Number of instructions fetched each cycle (Total)
system.cpu.fetch.rateDist::0                   188220     58.48%     58.48% # Number of instructions fetched each cycle (Total)
system.cpu.fetch.rateDist::1                    17607      5.47%     63.95% # Number of instructions fetched each cycle (Total)
system.cpu.fetch.rateDist::2                    17820      5.54%     69.49% # Number of instructions fetched each cycle (Total)
system.cpu.fetch.rateDist::3                    15210      4.73%     74.21% # Number of instructions fetched each cycle (Total)
system.cpu.fetch.rateDist::4                    12790      3.97%     78.18% # Number of instructions fetched each cycle (Total)
system.cpu.fetch.rateDist::5                    10277      3.19%     81.38% # Number of instructions fetched each cycle (Total)
system.cpu.fetch.rateDist::6                    10529      3.27%     84.65% # Number of instructions fetched each cycle (Total)
system.cpu.fetch.rateDist::7                     8737      2.71%     87.36% # Number of instructions fetched each cycle (Total)
system.cpu.fetch.rateDist::8                    40671     12.64%    100.00% # Number of instructions fetched each cycle (Total)
system.cpu.fetch.rateDist::overflows                0      0.00%    100.00% # Number of instructions fetched each cycle (Total)
system.cpu.fetch.rateDist::min_value                0                       # Number of instructions fetched each cycle (Total)
system.cpu.fetch.rateDist::max_value                8                       # Number of instructions fetched each cycle (Total)
system.cpu.fetch.rateDist::total               321861                       # Number of instructions fetched each cycle (Total)
system.cpu.idleCycles                           62031                       # Total number of cycles that the CPU has spent unscheduled due to idling
system.cpu.iew.branchMispredicts                 3106                       # Number of branch mispredicts detected at execute
system.cpu.iew.exec_branches                   114531                       # Number of branches executed
system.cpu.iew.exec_nop                          1036                       # number of nop insts executed
system.cpu.iew.exec_rate                     1.560280                       # Inst execution rate
system.cpu.iew.exec_refs                       165571                       # number of memory reference insts executed
system.cpu.iew.exec_stores                      67828                       # Number of stores executed
system.cpu.iew.exec_swp                             0                       # number of swp insts executed
system.cpu.iew.iewBlockCycles                    8342                       # Number of cycles IEW is blocking
system.cpu.iew.iewDispLoadInsts                 95495                       # Number of dispatched load instructions
system.cpu.iew.iewDispNonSpecInsts                306                       # Number of dispatched non-speculative instructions
system.cpu.iew.iewDispSquashedInsts              2331                       # Number of squashed instructions skipped by dispatch
system.cpu.iew.iewDispStoreInsts                70229                       # Number of dispatched store instructions
system.cpu.iew.iewDispatchedInsts              614552                       # Number of instructions dispatched to IQ
system.cpu.iew.iewExecLoadInsts                 97743                       # Number of load instructions executed
system.cpu.iew.iewExecSquashedInsts              4881                       # Number of squashed instructions skipped in execute
system.cpu.iew.iewExecutedInsts                598979                       # Number of executed instructions
system.cpu.iew.iewIQFullEvents                     48                       # Number of times the IQ has become full, causing a stall
system.cpu.iew.iewIdleCycles                        0                       # Number of cycles IEW is idle
system.cpu.iew.iewLSQFullEvents                   360                       # Number of times the LSQ has become full, causing a stall
system.cpu.iew.iewSquashCycles                   2944                       # Number of cycles IEW is squashing
system.cpu.iew.iewUnblockCycles                   435                       # Number of cycles IEW is unblocking
system.cpu.iew.lsq.thread0.blockedLoads             0                       # Number of blocked loads due to partial load-store forwarding
system.cpu.iew.lsq.thread0.cacheBlocked            60                       # Number of times an access to memory failed due to the cache being blocked
system.cpu.iew.lsq.thread0.forwLoads             6690                       # Number of loads that had data forwarded from stores
system.cpu.iew.lsq.thread0.ignoredResponses          111                       # Number of memory responses ignored because the instruction is squashed
system.cpu.iew.lsq.thread0.invAddrLoads             0                       # Number of loads ignored due to an invalid address
system.cpu.iew.lsq.thread0.invAddrSwpfs             0                       # Number of software prefetches ignored due to an invalid address
system.cpu.iew.lsq.thread0.memOrderViolation           53                       # Number of memory ordering violations
system.cpu.iew.lsq.thread0.rescheduledLoads         5103                       # Number of loads that were rescheduled
system.cpu.iew.lsq.thread0.squashedLoads         8894                       # Number of loads squashed
system.cpu.iew.lsq.thread0.squashedStores         6081                       # Number of stores squashed
system.cpu.iew.memOrderViolationEvents             53                       # Number of memory order violations
system.cpu.iew.predictedNotTakenIncorrect         2242                       # Number of branches that were predicted not taken incorrectly
system.cpu.iew.predictedTakenIncorrect            864                       # Number of branches that were predicted taken incorrectly
system.cpu.iew.wb_consumers                    531408                       # num instructions consuming a value
system.cpu.iew.wb_count                        590723                       # cumulative count of insts written-back
system.cpu.iew.wb_fanout                     0.566843                       # average fanout of values written-back
system.cpu.iew.wb_producers                    301225                       # num instructions producing a value
system.cpu.iew.wb_rate                       1.538774                       # insts written-back per cycle
system.cpu.iew.wb_sent                         592085                       # cumulative count of insts sent to commit
system.cpu.int_regfile_reads                   676594                       # number of integer regfile reads
system.cpu.int_regfile_writes                  425860                       # number of integer regfile writes
system.cpu.ipc                               1.302457                       # IPC: Instructions Per Cycle
system.cpu.ipc_total                         1.302457                       # IPC: Total IPC of All Threads
system.cpu.iq.FU_type_0::No_OpClass               212      0.04%      0.04% # Type of FU issued
system.cpu.iq.FU_type_0::IntAlu                430452     71.28%     71.32% # Type of FU issued
system.cpu.iq.FU_type_0::IntMult                 1858      0.31%     71.63% # Type of FU issued
system.cpu.iq.FU_type_0::IntDiv                   424      0.07%     71.70% # Type of FU issued
system.cpu.iq.FU_type_0::FloatAdd                 201      0.03%     71.73% # Type of FU issued
system.cpu.iq.FU_type_0::FloatCmp                   7      0.00%     71.73% # Type of FU issued
system.cpu.iq.FU_type_0::FloatCvt                   0      0.00%     71.73% # Type of FU issued
system.cpu.iq.FU_type_0::FloatMult                 16      0.00%     71.73% # Type of FU issued
system.cpu.iq.FU_type_0::FloatMultAcc              22      0.00%     71.74% # Type of FU issued
system.cpu.iq.FU_type_0::FloatDiv                   9      0.00%     71.74% # Type of FU issued
system.cpu.iq.FU_type_0::FloatMisc                912      0.15%     71.89% # Type of FU issued
system.cpu.iq.FU_type_0::FloatSqrt                  1      0.00%     71.89% # Type of FU issued
system.cpu.iq.FU_type_0::SimdAdd                  512      0.08%     71.97% # Type of FU issued
system.cpu.iq.FU_type_0::SimdAddAcc                 0      0.00%     71.97% # Type of FU issued
system.cpu.iq.FU_type_0::SimdAlu                  759      0.13%     72.10% # Type of FU issued
system.cpu.iq.FU_type_0::SimdCmp                  682      0.11%     72.21% # Type of FU issued
system.cpu.iq.FU_type_0::SimdCvt                    0      0.00%     72.21% # Type of FU issued
system.cpu.iq.FU_type_0::SimdMisc                 568      0.09%     72.31% # Type of FU issued
system.cpu.iq.FU_type_0::SimdMult                   0      0.00%     72.31% # Type of FU issued
system.cpu.iq.FU_type_0::SimdMultAcc                0      0.00%     72.31% # Type of FU issued
system.cpu.iq.FU_type_0::SimdShift                  0      0.00%     72.31% # Type of FU issued
system.cpu.iq.FU_type_0::SimdShiftAcc               0      0.00%     72.31% # Type of FU issued
system.cpu.iq.FU_type_0::SimdDiv                    0      0.00%     72.31% # Type of FU issued
system.cpu.iq.FU_type_0::SimdSqrt                   0      0.00%     72.31% # Type of FU issued
system.cpu.iq.FU_type_0::SimdFloatAdd               0      0.00%     72.31% # Type of FU issued
system.cpu.iq.FU_type_0::SimdFloatAlu               0      0.00%     72.31% # Type of FU issued
system.cpu.iq.FU_type_0::SimdFloatCmp               0      0.00%     72.31% # Type of FU issued
system.cpu.iq.FU_type_0::SimdFloatCvt               0      0.00%     72.31% # Type of FU issued
system.cpu.iq.FU_type_0::SimdFloatDiv               0      0.00%     72.31% # Type of FU issued
system.cpu.iq.FU_type_0::SimdFloatMisc              0      0.00%     72.31% # Type of FU issued
system.cpu.iq.FU_type_0::SimdFloatMult              0      0.00%     72.31% # Type of FU issued
system.cpu.iq.FU_type_0::SimdFloatMultAcc            0      0.00%     72.31% # Type of FU issued
system.cpu.iq.FU_type_0::SimdFloatSqrt              0      0.00%     72.31% # Type of FU issued
system.cpu.iq.FU_type_0::SimdReduceAdd              0      0.00%     72.31% # Type of FU issued
system.cpu.iq.FU_type_0::SimdReduceAlu              0      0.00%     72.31% # Type of FU issued
system.cpu.iq.FU_type_0::SimdReduceCmp              0      0.00%     72.31% # Type of FU issued
system.cpu.iq.FU_type_0::SimdFloatReduceAdd            0      0.00%     72.31% # Type of FU issued
system.cpu.iq.FU_type_0::SimdFloatReduceCmp            0      0.00%     72.31% # Type of FU issued
system.cpu.iq.FU_type_0::SimdAes                    0      0.00%     72.31% # Type of FU issued
system.cpu.iq.FU_type_0::SimdAesMix                 0      0.00%     72.31% # Type of FU issued
system.cpu.iq.FU_type_0::SimdSha1Hash               0      0.00%     72.31% # Type of FU issued
system.cpu.iq.FU_type_0::SimdSha1Hash2              0      0.00%     72.31% # Type of FU issued
system.cpu.iq.FU_type_0::SimdSha256Hash             0      0.00%     72.31% # Type of FU issued
system.cpu.iq.FU_type_0::SimdSha256Hash2            0      0.00%     72.31% # Type of FU issued
system.cpu.iq.FU_type_0::SimdShaSigma2              0      0.00%     72.31% # Type of FU issued
system.cpu.iq.FU_type_0::SimdShaSigma3              0      0.00%     72.31% # Type of FU issued
system.cpu.iq.FU_type_0::SimdPredAlu                0      0.00%     72.31% # Type of FU issued
system.cpu.iq.FU_type_0::MemRead                98924     16.38%     88.69% # Type of FU issued
system.cpu.iq.FU_type_0::MemWrite               68302     11.31%    100.00% # Type of FU issued
system.cpu.iq.FU_type_0::FloatMemRead               0      0.00%    100.00% # Type of FU issued
system.cpu.iq.FU_type_0::FloatMemWrite              0      0.00%    100.00% # Type of FU issued
system.cpu.iq.FU_type_0::IprAccess                  0      0.00%    100.00% # Type of FU issued
system.cpu.iq.FU_type_0::InstPrefetch               0      0.00%    100.00% # Type of FU issued
system.cpu.iq.FU_type_0::total                 603861                       # Type of FU issued
system.cpu.iq.fp_alu_accesses                       0                       # Number of floating point alu accesses
system.cpu.iq.fp_inst_queue_reads                   0                       # Number of floating instruction queue reads
system.cpu.iq.fp_inst_queue_wakeup_accesses            0                       # Number of floating instruction queue wakeup accesses
system.cpu.iq.fp_inst_queue_writes                  0                       # Number of floating instruction queue writes
system.cpu.iq.fu_busy_cnt                        9677                       # FU busy when requested
system.cpu.iq.fu_busy_rate                   0.016025                       # FU busy rate (busy events/executed inst)
system.cpu.iq.fu_full::No_OpClass                   0      0.00%      0.00% # attempts to use FU when none available
system.cpu.iq.fu_full::IntAlu                    3712     38.36%     38.36% # attempts to use FU when none available
system.cpu.iq.fu_full::IntMult                    123      1.27%     39.63% # attempts to use FU when none available
system.cpu.iq.fu_full::IntDiv                       0      0.00%     39.63% # attempts to use FU when none available
system.cpu.iq.fu_full::FloatAdd                     0      0.00%     39.63% # attempts to use FU when none available
system.cpu.iq.fu_full::FloatCmp                     0      0.00%     39.63% # attempts to use FU when none available
system.cpu.iq.fu_full::FloatCvt                     0      0.00%     39.63% # attempts to use FU when none available
system.cpu.iq.fu_full::FloatMult                   16      0.17%     39.80% # attempts to use FU when none available
system.cpu.iq.fu_full::FloatMultAcc                 1      0.01%     39.81% # attempts to use FU when none available
system.cpu.iq.fu_full::FloatDiv                    37      0.38%     40.19% # attempts to use FU when none available
system.cpu.iq.fu_full::FloatMisc                    1      0.01%     40.20% # attempts to use FU when none available
system.cpu.iq.fu_full::FloatSqrt                    0      0.00%     40.20% # attempts to use FU when none available
system.cpu.iq.fu_full::SimdAdd                      0      0.00%     40.20% # attempts to use FU when none available
system.cpu.iq.fu_full::SimdAddAcc                   0      0.00%     40.20% # attempts to use FU when none available
system.cpu.iq.fu_full::SimdAlu                      2      0.02%     40.22% # attempts to use FU when none available
system.cpu.iq.fu_full::SimdCmp                     29      0.30%     40.52% # attempts to use FU when none available
system.cpu.iq.fu_full::SimdCvt                      0      0.00%     40.52% # attempts to use FU when none available
system.cpu.iq.fu_full::SimdMisc                     0      0.00%     40.52% # attempts to use FU when none available
system.cpu.iq.fu_full::SimdMult                     0      0.00%     40.52% # attempts to use FU when none available
system.cpu.iq.fu_full::SimdMultAcc                  0      0.00%     40.52% # attempts to use FU when none available
system.cpu.iq.fu_full::SimdShift                    0      0.00%     40.52% # attempts to use FU when none available
system.cpu.iq.fu_full::SimdShiftAcc                 0      0.00%     40.52% # attempts to use FU when none available
system.cpu.iq.fu_full::SimdDiv                      0      0.00%     40.52% # attempts to use FU when none available
system.cpu.iq.fu_full::SimdSqrt                     0      0.00%     40.52% # attempts to use FU when none available
system.cpu.iq.fu_full::SimdFloatAdd                 0      0.00%     40.52% # attempts to use FU when none available
system.cpu.iq.fu_full::SimdFloatAlu                 0      0.00%     40.52% # attempts to use FU when none available
system.cpu.iq.fu_full::SimdFloatCmp                 0      0.00%     40.52% # attempts to use FU when none available
system.cpu.iq.fu_full::SimdFloatCvt                 0      0.00%     40.52% # attempts to use FU when none available
system.cpu.iq.fu_full::SimdFloatDiv                 0      0.00%     40.52% # attempts to use FU when none available
system.cpu.iq.fu_full::SimdFloatMisc                0      0.00%     40.52% # attempts to use FU when none available
system.cpu.iq.fu_full::SimdFloatMult                0      0.00%     40.52% # attempts to use FU when none available
system.cpu.iq.fu_full::SimdFloatMultAcc             0      0.00%     40.52% # attempts to use FU when none available
system.cpu.iq.fu_full::SimdFloatSqrt                0      0.00%     40.52% # attempts to use FU when none available
system.cpu.iq.fu_full::SimdReduceAdd                0      0.00%     40.52% # attempts to use FU when none available
system.cpu.iq.fu_full::SimdReduceAlu                0      0.00%     40.52% # attempts to use FU when none available
system.cpu.iq.fu_full::SimdReduceCmp                0      0.00%     40.52% # attempts to use FU when none available
system.cpu.iq.fu_full::SimdFloatReduceAdd            0      0.00%     40.52% # attempts to use FU when none available
system.cpu.iq.fu_full::SimdFloatReduceCmp            0      0.00%     40.52% # attempts to use FU when none available
system.cpu.iq.fu_full::SimdAes                      0      0.00%     40.52% # attempts to use FU when none available
system.cpu.iq.fu_full::SimdAesMix                   0      0.00%     40.52% # attempts to use FU when none available
system.cpu.iq.fu_full::SimdSha1Hash                 0      0.00%     40.52% # attempts to use FU when none available
system.cpu.iq.fu_full::SimdSha1Hash2                0      0.00%     40.52% # attempts to use FU when none available
system.cpu.iq.fu_full::SimdSha256Hash               0      0.00%     40.52% # attempts to use FU when none available
system.cpu.iq.fu_full::SimdSha256Hash2              0      0.00%     40.52% # attempts to use FU when none available
system.cpu.iq.fu_full::SimdShaSigma2                0      0.00%     40.52% # attempts to use FU when none available
system.cpu.iq.fu_full::SimdShaSigma3                0      0.00%     40.52% # attempts to use FU when none available
system.cpu.iq.fu_full::SimdPredAlu                  0      0.00%     40.52% # attempts to use FU when none available
system.cpu.iq.fu_full::MemRead                   1937     20.02%     60.54% # attempts to use FU when none available
system.cpu.iq.fu_full::MemWrite                  3819     39.46%    100.00% # attempts to use FU when none available
system.cpu.iq.fu_full::FloatMemRead                 0      0.00%    100.00% # attempts to use FU when none available
system.cpu.iq.fu_full::FloatMemWrite                0      0.00%    100.00% # attempts to use FU when none available
system.cpu.iq.fu_full::IprAccess                    0      0.00%    100.00% # attempts to use FU when none available
system.cpu.iq.fu_full::InstPrefetch                 0      0.00%    100.00% # attempts to use FU when none available
system.cpu.iq.int_alu_accesses                 604773                       # Number of integer alu accesses
system.cpu.iq.int_inst_queue_reads            1522956                       # Number of integer instruction queue reads
system.cpu.iq.int_inst_queue_wakeup_accesses       582934                       # Number of integer instruction queue wakeup accesses
system.cpu.iq.int_inst_queue_writes            659233                       # Number of integer instruction queue writes
system.cpu.iq.iqInstsAdded                     613210                       # Number of instructions added to the IQ (excludes non-spec)
system.cpu.iq.iqInstsIssued                    603861                       # Number of instructions issued
system.cpu.iq.iqNonSpecInstsAdded                 306                       # Number of non-speculative instructions added to the IQ
system.cpu.iq.iqSquashedInstsExamined           55719                       # Number of squashed instructions iterated over during squash; mainly for profiling
system.cpu.iq.iqSquashedInstsIssued               442                       # Number of squashed instructions issued
system.cpu.iq.iqSquashedNonSpecRemoved             24                       # Number of squashed non-spec instructions that were removed
system.cpu.iq.iqSquashedOperandsExamined        32572                       # Number of squashed operands that are examined and possibly removed from graph
system.cpu.iq.issued_per_cycle::samples        321861                       # Number of insts issued each cycle
system.cpu.iq.issued_per_cycle::mean         1.876155                       # Number of insts issued each cycle
system.cpu.iq.issued_per_cycle::stdev        2.102738                       # Number of insts issued each cycle
system.cpu.iq.issued_per_cycle::underflows            0      0.00%      0.00% # Number of insts issued each cycle
system.cpu.iq.issued_per_cycle::0              123489     38.37%     38.37% # Number of insts issued each cycle
system.cpu.iq.issued_per_cycle::1               54358     16.89%     55.26% # Number of insts issued each cycle
system.cpu.iq.issued_per_cycle::2               39758     12.35%     67.61% # Number of insts issued each cycle
system.cpu.iq.issued_per_cycle::3               33114     10.29%     77.90% # Number of insts issued each cycle
system.cpu.iq.issued_per_cycle::4               27693      8.60%     86.50% # Number of insts issued each cycle
system.cpu.iq.issued_per_cycle::5               18256      5.67%     92.17% # Number of insts issued each cycle
system.cpu.iq.issued_per_cycle::6               13526      4.20%     96.38% # Number of insts issued each cycle
system.cpu.iq.issued_per_cycle::7                5899      1.83%     98.21% # Number of insts issued each cycle
system.cpu.iq.issued_per_cycle::8                5768      1.79%    100.00% # Number of insts issued each cycle
system.cpu.iq.issued_per_cycle::overflows            0      0.00%    100.00% # Number of insts issued each cycle
system.cpu.iq.issued_per_cycle::min_value            0                       # Number of insts issued each cycle
system.cpu.iq.issued_per_cycle::max_value            8                       # Number of insts issued each cycle
system.cpu.iq.issued_per_cycle::total          321861                       # Number of insts issued each cycle
system.cpu.iq.rate                           1.572997                       # Inst issue rate
system.cpu.iq.vec_alu_accesses                   8553                       # Number of vector alu accesses
system.cpu.iq.vec_inst_queue_reads              16745                       # Number of vector instruction queue reads
system.cpu.iq.vec_inst_queue_wakeup_accesses         7789                       # Number of vector instruction queue wakeup accesses
system.cpu.iq.vec_inst_queue_writes             10049                       # Number of vector instruction queue writes
system.cpu.itb.accesses                             0                       # DTB accesses
system.cpu.itb.align_faults                         0                       # Number of TLB faults due to alignment restrictions
system.cpu.itb.domain_faults                        0                       # Number of TLB faults due to domain restrictions
system.cpu.itb.flush_entries                        0                       # Number of entries that have been flushed from TLB
system.cpu.itb.flush_tlb                            0                       # Number of times complete TLB was flushed
system.cpu.itb.flush_tlb_asid                       0                       # Number of times TLB was flushed by ASID
system.cpu.itb.flush_tlb_mva                        0                       # Number of times TLB was flushed by MVA
system.cpu.itb.flush_tlb_mva_asid                   0                       # Number of times TLB was flushed by MVA & ASID
system.cpu.itb.hits                                 0                       # DTB hits
system.cpu.itb.inst_accesses                        0                       # ITB inst accesses
system.cpu.itb.inst_hits                            0                       # ITB inst hits
system.cpu.itb.inst_misses                          0                       # ITB inst misses
system.cpu.itb.misses                               0                       # DTB misses
system.cpu.itb.perms_faults                         0                       # Number of TLB faults due to permissions restrictions
system.cpu.itb.prefetch_faults                      0                       # Number of TLB faults due to prefetch
system.cpu.itb.read_accesses                        0                       # DTB read accesses
system.cpu.itb.read_hits                            0                       # DTB read hits
system.cpu.itb.read_misses                          0                       # DTB read misses
system.cpu.itb.stage2_mmu.stage2_tlb.accesses            0                       # DTB accesses
system.cpu.itb.stage2_mmu.stage2_tlb.align_faults            0                       # Number of TLB faults due to alignment restrictions
system.cpu.itb.stage2_mmu.stage2_tlb.domain_faults            0                       # Number of TLB faults due to domain restrictions
system.cpu.itb.stage2_mmu.stage2_tlb.flush_entries            0                       # Number of entries that have been flushed from TLB
system.cpu.itb.stage2_mmu.stage2_tlb.flush_tlb            0                       # Number of times complete TLB was flushed
system.cpu.itb.stage2_mmu.stage2_tlb.flush_tlb_asid            0                       # Number of times TLB was flushed by ASID
system.cpu.itb.stage2_mmu.stage2_tlb.flush_tlb_mva            0                       # Number of times TLB was flushed by MVA
system.cpu.itb.stage2_mmu.stage2_tlb.flush_tlb_mva_asid            0                       # Number of times TLB was flushed by MVA & ASID
system.cpu.itb.stage2_mmu.stage2_tlb.hits            0                       # DTB hits
system.cpu.itb.stage2_mmu.stage2_tlb.inst_accesses            0                       # ITB inst accesses
system.cpu.itb.stage2_mmu.stage2_tlb.inst_hits            0                       # ITB inst hits
system.cpu.itb.stage2_mmu.stage2_tlb.inst_misses            0                       # ITB inst misses
system.cpu.itb.stage2_mmu.stage2_tlb.misses            0                       # DTB misses
system.cpu.itb.stage2_mmu.stage2_tlb.perms_faults            0                       # Number of TLB faults due to permissions restrictions
system.cpu.itb.stage2_mmu.stage2_tlb.prefetch_faults            0                       # Number of TLB faults due to prefetch
system.cpu.itb.stage2_mmu.stage2_tlb.read_accesses            0                       # DTB read accesses
system.cpu.itb.stage2_mmu.stage2_tlb.read_hits            0                       # DTB read hits
system.cpu.itb.stage2_mmu.stage2_tlb.read_misses            0                       # DTB read misses
system.cpu.itb.stage2_mmu.stage2_tlb.walker.walkRequestOrigin_Requested::Data            0                       # Table walker requests started/completed, data/inst
system.cpu.itb.stage2_mmu.stage2_tlb.walker.walkRequestOrigin_Requested::Inst            0                       # Table walker requests started/completed, data/inst
system.cpu.itb.stage2_mmu.stage2_tlb.walker.walkRequestOrigin_Requested::total            0                       # Table walker requests started/completed, data/inst
system.cpu.itb.stage2_mmu.stage2_tlb.walker.walkRequestOrigin_Completed::Data            0                       # Table walker requests started/completed, data/inst
system.cpu.itb.stage2_mmu.stage2_tlb.walker.walkRequestOrigin_Completed::Inst            0                       # Table walker requests started/completed, data/inst
system.cpu.itb.stage2_mmu.stage2_tlb.walker.walkRequestOrigin_Completed::total            0                       # Table walker requests started/completed, data/inst
system.cpu.itb.stage2_mmu.stage2_tlb.walker.walkRequestOrigin::total            0                       # Table walker requests started/completed, data/inst
system.cpu.itb.stage2_mmu.stage2_tlb.walker.walks            0                       # Table walker walks requested
system.cpu.itb.stage2_mmu.stage2_tlb.write_accesses            0                       # DTB write accesses
system.cpu.itb.stage2_mmu.stage2_tlb.write_hits            0                       # DTB write hits
system.cpu.itb.stage2_mmu.stage2_tlb.write_misses            0                       # DTB write misses
system.cpu.itb.walker.walkRequestOrigin_Requested::Data            0                       # Table walker requests started/completed, data/inst
system.cpu.itb.walker.walkRequestOrigin_Requested::Inst            0                       # Table walker requests started/completed, data/inst
system.cpu.itb.walker.walkRequestOrigin_Requested::total            0                       # Table walker requests started/completed, data/inst
system.cpu.itb.walker.walkRequestOrigin_Completed::Data            0                       # Table walker requests started/completed, data/inst
system.cpu.itb.walker.walkRequestOrigin_Completed::Inst            0                       # Table walker requests started/completed, data/inst
system.cpu.itb.walker.walkRequestOrigin_Completed::total            0                       # Table walker requests started/completed, data/inst
system.cpu.itb.walker.walkRequestOrigin::total            0                       # Table walker requests started/completed, data/inst
system.cpu.itb.walker.walks                         0                       # Table walker walks requested
system.cpu.itb.write_accesses                       0                       # DTB write accesses
system.cpu.itb.write_hits                           0                       # DTB write hits
system.cpu.itb.write_misses                         0                       # DTB write misses
system.cpu.memDep0.conflictingLoads              4490                       # Number of conflicting loads.
system.cpu.memDep0.conflictingStores             3965                       # Number of conflicting stores.
system.cpu.memDep0.insertedLoads                95495                       # Number of loads inserted to the mem dependence unit.
system.cpu.memDep0.insertedStores               70229                       # Number of stores inserted to the mem dependence unit.
system.cpu.misc_regfile_reads                  409124                       # number of misc regfile reads
system.cpu.misc_regfile_writes                   1337                       # number of misc regfile writes
system.cpu.numCycles                           383892                       # number of cpu cycles simulated
system.cpu.numWorkItemsCompleted                    0                       # number of work items this cpu completed
system.cpu.numWorkItemsStarted                      0                       # number of work items this cpu started
system.cpu.rename.BlockCycles                    9090                       # Number of cycles rename is blocking
system.cpu.rename.CommittedMaps                593366                       # Number of HB maps that are committed
system.cpu.rename.IQFullEvents                    528                       # Number of times rename has blocked due to IQ full
system.cpu.rename.IdleCycles                   131142                       # Number of cycles rename is idle
system.cpu.rename.LQFullEvents                   1378                       # Number of times rename has blocked due to LQ full
system.cpu.rename.ROBFullEvents                     7                       # Number of times rename has blocked due to ROB full
system.cpu.rename.RenameLookups                954518                       # Number of register rename lookups that rename has made
system.cpu.rename.RenamedInsts                 628962                       # Number of instructions processed by rename
system.cpu.rename.RenamedOperands              669425                       # Number of destination operands rename has renamed
system.cpu.rename.RunCycles                    124636                       # Number of cycles rename is running
system.cpu.rename.SQFullEvents                  23300                       # Number of times rename has blocked due to SQ full
system.cpu.rename.SquashCycles                   2944                       # Number of cycles rename is squashing
system.cpu.rename.UnblockCycles                 26533                       # Number of cycles rename is unblocking
system.cpu.rename.UndoneMaps                    76012                       # Number of HB maps that are undone due to squashing
system.cpu.rename.int_rename_lookups           709697                       # Number of integer rename lookups
system.cpu.rename.serializeStallCycles          27516                       # count of cycles rename stalled for serializing inst
system.cpu.rename.serializingInsts               1267                       # count of serializing insts renamed
system.cpu.rename.skidInsts                      8286                       # count of insts added to the skid buffer
system.cpu.rename.tempSerializingInsts            311                       # count of temporary serializing insts renamed
system.cpu.rename.vec_rename_lookups             9000                       # Number of vector rename lookups
system.cpu.rob.rob_reads                       898909                       # The number of ROB reads
system.cpu.rob.rob_writes                     1236797                       # The number of ROB writes
system.cpu.timesIdled                            1345                       # Number of times that the entire CPU went into an idle state and unscheduled itself
system.cpu.vec_regfile_reads                     8397                       # number of vector regfile reads
system.cpu.vec_regfile_writes                    4510                       # number of vector regfile writes
system.cpu.workload.numSyscalls                    10                       # Number of system calls
system.membus.snoop_filter.hit_multi_requests            0                       # Number of requests hitting in the snoop filter with multiple (>1) holders of the requested data.
system.membus.snoop_filter.hit_multi_snoops            0                       # Number of snoops hitting in the snoop filter with multiple (>1) holders of the requested data.
system.membus.snoop_filter.hit_single_requests            0                       # Number of requests hitting in the snoop filter with a single holder of the requested data.
system.membus.snoop_filter.hit_single_snoops            0                       # Number of snoops hitting in the snoop filter with a single holder of the requested data.
system.membus.snoop_filter.tot_requests          1265                       # Total number of requests made to the snoop filter.
system.membus.snoop_filter.tot_snoops               0                       # Total number of snoops made to the snoop filter.
system.tol2bus.snoop_filter.hit_multi_requests            1                       # Number of requests hitting in the snoop filter with multiple (>1) holders of the requested data.
system.tol2bus.snoop_filter.hit_multi_snoops            0                       # Number of snoops hitting in the snoop filter with multiple (>1) holders of the requested data.
system.tol2bus.snoop_filter.hit_single_requests         1759                       # Number of requests hitting in the snoop filter with a single holder of the requested data.
system.tol2bus.snoop_filter.hit_single_snoops            0                       # Number of snoops hitting in the snoop filter with a single holder of the requested data.
system.tol2bus.snoop_filter.tot_requests         4376                       # Total number of requests made to the snoop filter.
system.tol2bus.snoop_filter.tot_snoops              0                       # Total number of snoops made to the snoop filter.
system.membus.trans_dist::ReadResp                968                       # Transaction distribution
system.membus.trans_dist::ReadExReq               284                       # Transaction distribution
system.membus.trans_dist::ReadExResp              284                       # Transaction distribution
system.membus.trans_dist::ReadSharedReq           968                       # Transaction distribution
system.membus.trans_dist::InvalidateReq            13                       # Transaction distribution
system.membus.pkt_count_system.l2.mem_side::system.mem_ctrls.port         2517                       # Packet count per connected master and slave (bytes)
system.membus.pkt_count::total                   2517                       # Packet count per connected master and slave (bytes)
system.membus.pkt_size_system.l2.mem_side::system.mem_ctrls.port        80128                       # Cumulative packet size per connected master and slave (bytes)
system.membus.pkt_size::total                   80128                       # Cumulative packet size per connected master and slave (bytes)
system.membus.snoops                                0                       # Total snoops (count)
system.membus.snoopTraffic                          0                       # Total snoop traffic (bytes)
system.membus.snoop_fanout::samples              1265                       # Request fanout histogram
system.membus.snoop_fanout::mean                    0                       # Request fanout histogram
system.membus.snoop_fanout::stdev                   0                       # Request fanout histogram
system.membus.snoop_fanout::underflows              0      0.00%      0.00% # Request fanout histogram
system.membus.snoop_fanout::0                    1265    100.00%    100.00% # Request fanout histogram
system.membus.snoop_fanout::1                       0      0.00%    100.00% # Request fanout histogram
system.membus.snoop_fanout::overflows               0      0.00%    100.00% # Request fanout histogram
system.membus.snoop_fanout::min_value               0                       # Request fanout histogram
system.membus.snoop_fanout::max_value               0                       # Request fanout histogram
system.membus.snoop_fanout::total                1265                       # Request fanout histogram
system.membus.reqLayer0.occupancy             1556500                       # Layer occupancy (ticks)
system.membus.reqLayer0.utilization               0.8                       # Layer utilization (%)
system.membus.respLayer1.occupancy            6637000                       # Layer occupancy (ticks)
system.membus.respLayer1.utilization              3.5                       # Layer utilization (%)
system.membus.power_state.pwrStateResidencyTicks::UNDEFINED    191945000                       # Cumulative time (in ticks) in various power states
system.tol2bus.trans_dist::ReadResp              2318                       # Transaction distribution
system.tol2bus.trans_dist::WritebackDirty           61                       # Transaction distribution
system.tol2bus.trans_dist::WritebackClean         1636                       # Transaction distribution
system.tol2bus.trans_dist::CleanEvict              62                       # Transaction distribution
system.tol2bus.trans_dist::ReadExReq              286                       # Transaction distribution
system.tol2bus.trans_dist::ReadExResp             286                       # Transaction distribution
system.tol2bus.trans_dist::ReadCleanReq          2118                       # Transaction distribution
system.tol2bus.trans_dist::ReadSharedReq          200                       # Transaction distribution
system.tol2bus.trans_dist::InvalidateReq           13                       # Transaction distribution
system.tol2bus.trans_dist::InvalidateResp           13                       # Transaction distribution
system.tol2bus.pkt_count_system.cpu.icache.mem_side::system.l2.cpu_side         5872                       # Packet count per connected master and slave (bytes)
system.tol2bus.pkt_count_system.cpu.dcache.mem_side::system.l2.cpu_side         1121                       # Packet count per connected master and slave (bytes)
system.tol2bus.pkt_count::total                  6993                       # Packet count per connected master and slave (bytes)
system.tol2bus.pkt_size_system.cpu.icache.mem_side::system.l2.cpu_side       240256                       # Cumulative packet size per connected master and slave (bytes)
system.tol2bus.pkt_size_system.cpu.dcache.mem_side::system.l2.cpu_side        35008                       # Cumulative packet size per connected master and slave (bytes)
system.tol2bus.pkt_size::total                 275264                       # Cumulative packet size per connected master and slave (bytes)
system.tol2bus.snoops                               0                       # Total snoops (count)
system.tol2bus.snoopTraffic                         0                       # Total snoop traffic (bytes)
system.tol2bus.snoop_fanout::samples             2617                       # Request fanout histogram
system.tol2bus.snoop_fanout::mean            0.000382                       # Request fanout histogram
system.tol2bus.snoop_fanout::stdev           0.019548                       # Request fanout histogram
system.tol2bus.snoop_fanout::underflows             0      0.00%      0.00% # Request fanout histogram
system.tol2bus.snoop_fanout::0                   2616     99.96%     99.96% # Request fanout histogram
system.tol2bus.snoop_fanout::1                      1      0.04%    100.00% # Request fanout histogram
system.tol2bus.snoop_fanout::2                      0      0.00%    100.00% # Request fanout histogram
system.tol2bus.snoop_fanout::overflows              0      0.00%    100.00% # Request fanout histogram
system.tol2bus.snoop_fanout::min_value              0                       # Request fanout histogram
system.tol2bus.snoop_fanout::max_value              1                       # Request fanout histogram
system.tol2bus.snoop_fanout::total               2617                       # Request fanout histogram
system.tol2bus.reqLayer0.occupancy            3885000                       # Layer occupancy (ticks)
system.tol2bus.reqLayer0.utilization              2.0                       # Layer utilization (%)
system.tol2bus.respLayer1.occupancy            735999                       # Layer occupancy (ticks)
system.tol2bus.respLayer1.utilization             0.4                       # Layer utilization (%)
system.tol2bus.respLayer0.occupancy           3177000                       # Layer occupancy (ticks)
system.tol2bus.respLayer0.utilization             1.7                       # Layer utilization (%)
system.tol2bus.power_state.pwrStateResidencyTicks::UNDEFINED    191945000                       # Cumulative time (in ticks) in various power states
system.voltage_domain.voltage                       1                       # Voltage in Volts
system.clk_domain.clock                          1000                       # Clock period in ticks
system.l2.demand_hits::.cpu.inst                 1343                       # number of demand (read+write) hits
system.l2.demand_hits::.cpu.data                    9                       # number of demand (read+write) hits
system.l2.demand_hits::total                     1352                       # number of demand (read+write) hits
system.l2.overall_hits::.cpu.inst                1343                       # number of overall hits
system.l2.overall_hits::.cpu.data                   9                       # number of overall hits
system.l2.overall_hits::total                    1352                       # number of overall hits
system.l2.demand_misses::.cpu.inst                775                       # number of demand (read+write) misses
system.l2.demand_misses::.cpu.data                477                       # number of demand (read+write) misses
system.l2.demand_misses::total                   1252                       # number of demand (read+write) misses
system.l2.overall_misses::.cpu.inst               775                       # number of overall misses
system.l2.overall_misses::.cpu.data               477                       # number of overall misses
system.l2.overall_misses::total                  1252                       # number of overall misses
system.l2.demand_miss_latency::.cpu.inst     60461500                       # number of demand (read+write) miss cycles
system.l2.demand_miss_latency::.cpu.data     39491500                       # number of demand (read+write) miss cycles
system.l2.demand_miss_latency::total         99953000                       # number of demand (read+write) miss cycles
system.l2.overall_miss_latency::.cpu.inst     60461500                       # number of overall miss cycles
system.l2.overall_miss_latency::.cpu.data     39491500                       # number of overall miss cycles
system.l2.overall_miss_latency::total        99953000                       # number of overall miss cycles
system.l2.demand_accesses::.cpu.inst             2118                       # number of demand (read+write) accesses
system.l2.demand_accesses::.cpu.data              486                       # number of demand (read+write) accesses
system.l2.demand_accesses::total                 2604                       # number of demand (read+write) accesses
system.l2.overall_accesses::.cpu.inst            2118                       # number of overall (read+write) accesses
system.l2.overall_accesses::.cpu.data             486                       # number of overall (read+write) accesses
system.l2.overall_accesses::total                2604                       # number of overall (read+write) accesses
system.l2.demand_miss_rate::.cpu.inst        0.365911                       # miss rate for demand accesses
system.l2.demand_miss_rate::.cpu.data        0.981481                       # miss rate for demand accesses
system.l2.demand_miss_rate::total            0.480799                       # miss rate for demand accesses
system.l2.overall_miss_rate::.cpu.inst       0.365911                       # miss rate for overall accesses
system.l2.overall_miss_rate::.cpu.data       0.981481                       # miss rate for overall accesses
system.l2.overall_miss_rate::total           0.480799                       # miss rate for overall accesses
system.l2.demand_avg_miss_latency::.cpu.inst 78014.838710                       # average overall miss latency
system.l2.demand_avg_miss_latency::.cpu.data 82791.404612                       # average overall miss latency
system.l2.demand_avg_miss_latency::total 79834.664537                       # average overall miss latency
system.l2.overall_avg_miss_latency::.cpu.inst 78014.838710                       # average overall miss latency
system.l2.overall_avg_miss_latency::.cpu.data 82791.404612                       # average overall miss latency
system.l2.overall_avg_miss_latency::total 79834.664537                       # average overall miss latency
system.l2.blocked_cycles::no_mshrs                  0                       # number of cycles access was blocked
system.l2.blocked_cycles::no_targets                0                       # number of cycles access was blocked
system.l2.blocked::no_mshrs                         0                       # number of cycles access was blocked
system.l2.blocked::no_targets                       0                       # number of cycles access was blocked
system.l2.avg_blocked_cycles::no_mshrs            nan                       # average number of cycles each access was blocked
system.l2.avg_blocked_cycles::no_targets          nan                       # average number of cycles each access was blocked
system.l2.demand_mshr_misses::.cpu.inst           775                       # number of demand (read+write) MSHR misses
system.l2.demand_mshr_misses::.cpu.data           477                       # number of demand (read+write) MSHR misses
system.l2.demand_mshr_misses::total              1252                       # number of demand (read+write) MSHR misses
system.l2.overall_mshr_misses::.cpu.inst          775                       # number of overall MSHR misses
system.l2.overall_mshr_misses::.cpu.data          477                       # number of overall MSHR misses
system.l2.overall_mshr_misses::total             1252                       # number of overall MSHR misses
system.l2.demand_mshr_miss_latency::.cpu.inst     52711500                       # number of demand (read+write) MSHR miss cycles
system.l2.demand_mshr_miss_latency::.cpu.data     34721500                       # number of demand (read+write) MSHR miss cycles
system.l2.demand_mshr_miss_latency::total     87433000                       # number of demand (read+write) MSHR miss cycles
system.l2.overall_mshr_miss_latency::.cpu.inst     52711500                       # number of overall MSHR miss cycles
system.l2.overall_mshr_miss_latency::.cpu.data     34721500                       # number of overall MSHR miss cycles
system.l2.overall_mshr_miss_latency::total     87433000                       # number of overall MSHR miss cycles
system.l2.demand_mshr_miss_rate::.cpu.inst     0.365911                       # mshr miss rate for demand accesses
system.l2.demand_mshr_miss_rate::.cpu.data     0.981481                       # mshr miss rate for demand accesses
system.l2.demand_mshr_miss_rate::total       0.480799                       # mshr miss rate for demand accesses
system.l2.overall_mshr_miss_rate::.cpu.inst     0.365911                       # mshr miss rate for overall accesses
system.l2.overall_mshr_miss_rate::.cpu.data     0.981481                       # mshr miss rate for overall accesses
system.l2.overall_mshr_miss_rate::total      0.480799                       # mshr miss rate for overall accesses
system.l2.demand_avg_mshr_miss_latency::.cpu.inst 68014.838710                       # average overall mshr miss latency
system.l2.demand_avg_mshr_miss_latency::.cpu.data 72791.404612                       # average overall mshr miss latency
system.l2.demand_avg_mshr_miss_latency::total 69834.664537                       # average overall mshr miss latency
system.l2.overall_avg_mshr_miss_latency::.cpu.inst 68014.838710                       # average overall mshr miss latency
system.l2.overall_avg_mshr_miss_latency::.cpu.data 72791.404612                       # average overall mshr miss latency
system.l2.overall_avg_mshr_miss_latency::total 69834.664537                       # average overall mshr miss latency
system.l2.replacements                              0                       # number of replacements
system.l2.WritebackDirty_hits::.writebacks           61                       # number of WritebackDirty hits
system.l2.WritebackDirty_hits::total               61                       # number of WritebackDirty hits
system.l2.WritebackDirty_accesses::.writebacks           61                       # number of WritebackDirty accesses(hits+misses)
system.l2.WritebackDirty_accesses::total           61                       # number of WritebackDirty accesses(hits+misses)
system.l2.WritebackClean_hits::.writebacks         1635                       # number of WritebackClean hits
system.l2.WritebackClean_hits::total             1635                       # number of WritebackClean hits
system.l2.WritebackClean_accesses::.writebacks         1635                       # number of WritebackClean accesses(hits+misses)
system.l2.WritebackClean_accesses::total         1635                       # number of WritebackClean accesses(hits+misses)
system.l2.ReadExReq_hits::.cpu.data                 2                       # number of ReadExReq hits
system.l2.ReadExReq_hits::total                     2                       # number of ReadExReq hits
system.l2.ReadExReq_misses::.cpu.data             284                       # number of ReadExReq misses
system.l2.ReadExReq_misses::total                 284                       # number of ReadExReq misses
system.l2.ReadExReq_miss_latency::.cpu.data     23431000                       # number of ReadExReq miss cycles
system.l2.ReadExReq_miss_latency::total      23431000                       # number of ReadExReq miss cycles
system.l2.ReadExReq_accesses::.cpu.data           286                       # number of ReadExReq accesses(hits+misses)
system.l2.ReadExReq_accesses::total               286                       # number of ReadExReq accesses(hits+misses)
system.l2.ReadExReq_miss_rate::.cpu.data     0.993007                       # miss rate for ReadExReq accesses
system.l2.ReadExReq_miss_rate::total         0.993007                       # miss rate for ReadExReq accesses
system.l2.ReadExReq_avg_miss_latency::.cpu.data 82503.521127                       # average ReadExReq miss latency
system.l2.ReadExReq_avg_miss_latency::total 82503.521127                       # average ReadExReq miss latency
system.l2.ReadExReq_mshr_misses::.cpu.data          284                       # number of ReadExReq MSHR misses
system.l2.ReadExReq_mshr_misses::total            284                       # number of ReadExReq MSHR misses
system.l2.ReadExReq_mshr_miss_latency::.cpu.data     20591000                       # number of ReadExReq MSHR miss cycles
system.l2.ReadExReq_mshr_miss_latency::total     20591000                       # number of ReadExReq MSHR miss cycles
system.l2.ReadExReq_mshr_miss_rate::.cpu.data     0.993007                       # mshr miss rate for ReadExReq accesses
system.l2.ReadExReq_mshr_miss_rate::total     0.993007                       # mshr miss rate for ReadExReq accesses
system.l2.ReadExReq_avg_mshr_miss_latency::.cpu.data 72503.521127                       # average ReadExReq mshr miss latency
system.l2.ReadExReq_avg_mshr_miss_latency::total 72503.521127                       # average ReadExReq mshr miss latency
system.l2.ReadCleanReq_hits::.cpu.inst           1343                       # number of ReadCleanReq hits
system.l2.ReadCleanReq_hits::total               1343                       # number of ReadCleanReq hits
system.l2.ReadCleanReq_misses::.cpu.inst          775                       # number of ReadCleanReq misses
system.l2.ReadCleanReq_misses::total              775                       # number of ReadCleanReq misses
system.l2.ReadCleanReq_miss_latency::.cpu.inst     60461500                       # number of ReadCleanReq miss cycles
system.l2.ReadCleanReq_miss_latency::total     60461500                       # number of ReadCleanReq miss cycles
system.l2.ReadCleanReq_accesses::.cpu.inst         2118                       # number of ReadCleanReq accesses(hits+misses)
system.l2.ReadCleanReq_accesses::total           2118                       # number of ReadCleanReq accesses(hits+misses)
system.l2.ReadCleanReq_miss_rate::.cpu.inst     0.365911                       # miss rate for ReadCleanReq accesses
system.l2.ReadCleanReq_miss_rate::total      0.365911                       # miss rate for ReadCleanReq accesses
system.l2.ReadCleanReq_avg_miss_latency::.cpu.inst 78014.838710                       # average ReadCleanReq miss latency
system.l2.ReadCleanReq_avg_miss_latency::total 78014.838710                       # average ReadCleanReq miss latency
system.l2.ReadCleanReq_mshr_misses::.cpu.inst          775                       # number of ReadCleanReq MSHR misses
system.l2.ReadCleanReq_mshr_misses::total          775                       # number of ReadCleanReq MSHR misses
system.l2.ReadCleanReq_mshr_miss_latency::.cpu.inst     52711500                       # number of ReadCleanReq MSHR miss cycles
system.l2.ReadCleanReq_mshr_miss_latency::total     52711500                       # number of ReadCleanReq MSHR miss cycles
system.l2.ReadCleanReq_mshr_miss_rate::.cpu.inst     0.365911                       # mshr miss rate for ReadCleanReq accesses
system.l2.ReadCleanReq_mshr_miss_rate::total     0.365911                       # mshr miss rate for ReadCleanReq accesses
system.l2.ReadCleanReq_avg_mshr_miss_latency::.cpu.inst 68014.838710                       # average ReadCleanReq mshr miss latency
system.l2.ReadCleanReq_avg_mshr_miss_latency::total 68014.838710                       # average ReadCleanReq mshr miss latency
system.l2.ReadSharedReq_hits::.cpu.data             7                       # number of ReadSharedReq hits
[...]
system.cpu.icache.tags.data_accesses           195732                       # Number of data accesses
system.cpu.icache.tags.power_state.pwrStateResidencyTicks::UNDEFINED    191945000                       # Cumulative time (in ticks) in various power states
system.cpu.dtb.walker.power_state.pwrStateResidencyTicks::UNDEFINED    191945000                       # Cumulative time (in ticks) in various power states
system.cpu.dtb.stage2_mmu.stage2_tlb.walker.power_state.pwrStateResidencyTicks::UNDEFINED    191945000                       # Cumulative time (in ticks) in various power states
system.cpu.itb.walker.power_state.pwrStateResidencyTicks::UNDEFINED    191945000                       # Cumulative time (in ticks) in various power states
system.cpu.itb.stage2_mmu.stage2_tlb.walker.power_state.pwrStateResidencyTicks::UNDEFINED    191945000                       # Cumulative time (in ticks) in various power states
system.cpu.dcache.demand_hits::.cpu.data       147403                       # number of demand (read+write) hits
system.cpu.dcache.demand_hits::total           147403                       # number of demand (read+write) hits
system.cpu.dcache.overall_hits::.cpu.data       147998                       # number of overall hits
system.cpu.dcache.overall_hits::total          147998                       # number of overall hits
system.cpu.dcache.demand_misses::.cpu.data         1802                       # number of demand (read+write) misses
system.cpu.dcache.demand_misses::total           1802                       # number of demand (read+write) misses
system.cpu.dcache.overall_misses::.cpu.data         1805                       # number of overall misses
system.cpu.dcache.overall_misses::total          1805                       # number of overall misses
system.cpu.dcache.demand_miss_latency::.cpu.data    136286457                       # number of demand (read+write) miss cycles
system.cpu.dcache.demand_miss_latency::total    136286457                       # number of demand (read+write) miss cycles
system.cpu.dcache.overall_miss_latency::.cpu.data    136286457                       # number of overall miss cycles
system.cpu.dcache.overall_miss_latency::total    136286457                       # number of overall miss cycles
system.cpu.dcache.demand_accesses::.cpu.data       149205                       # number of demand (read+write) accesses
system.cpu.dcache.demand_accesses::total       149205                       # number of demand (read+write) accesses
system.cpu.dcache.overall_accesses::.cpu.data       149803                       # number of overall (read+write) accesses
system.cpu.dcache.overall_accesses::total       149803                       # number of overall (read+write) accesses
system.cpu.dcache.demand_miss_rate::.cpu.data     0.012077                       # miss rate for demand accesses
system.cpu.dcache.demand_miss_rate::total     0.012077                       # miss rate for demand accesses
system.cpu.dcache.overall_miss_rate::.cpu.data     0.012049                       # miss rate for overall accesses
system.cpu.dcache.overall_miss_rate::total     0.012049                       # miss rate for overall accesses
system.cpu.dcache.demand_avg_miss_latency::.cpu.data 75630.664262                       # average overall miss latency
system.cpu.dcache.demand_avg_miss_latency::total 75630.664262                       # average overall miss latency
system.cpu.dcache.overall_avg_miss_latency::.cpu.data 75504.962327                       # average overall miss latency
system.cpu.dcache.overall_avg_miss_latency::total 75504.962327                       # average overall miss latency
system.cpu.dcache.blocked_cycles::no_mshrs         3986                       # number of cycles access was blocked
system.cpu.dcache.blocked_cycles::no_targets            0                       # number of cycles access was blocked
system.cpu.dcache.blocked::no_mshrs                72                       # number of cycles access was blocked
system.cpu.dcache.blocked::no_targets               0                       # number of cycles access was blocked
system.cpu.dcache.avg_blocked_cycles::no_mshrs    55.361111                       # average number of cycles each access was blocked
system.cpu.dcache.avg_blocked_cycles::no_targets          nan                       # average number of cycles each access was blocked
system.cpu.dcache.writebacks::.writebacks           61                       # number of writebacks
system.cpu.dcache.writebacks::total                61                       # number of writebacks
system.cpu.dcache.demand_mshr_hits::.cpu.data         1306                       # number of demand (read+write) MSHR hits
system.cpu.dcache.demand_mshr_hits::total         1306                       # number of demand (read+write) MSHR hits
system.cpu.dcache.overall_mshr_hits::.cpu.data         1306                       # number of overall MSHR hits
system.cpu.dcache.overall_mshr_hits::total         1306                       # number of overall MSHR hits
system.cpu.dcache.demand_mshr_misses::.cpu.data          496                       # number of demand (read+write) MSHR misses
system.cpu.dcache.demand_mshr_misses::total          496                       # number of demand (read+write) MSHR misses
system.cpu.dcache.overall_mshr_misses::.cpu.data          499                       # number of overall MSHR misses
system.cpu.dcache.overall_mshr_misses::total          499                       # number of overall MSHR misses
system.cpu.dcache.demand_mshr_miss_latency::.cpu.data     40495993                       # number of demand (read+write) MSHR miss cycles
system.cpu.dcache.demand_mshr_miss_latency::total     40495993                       # number of demand (read+write) MSHR miss cycles
system.cpu.dcache.overall_mshr_miss_latency::.cpu.data     40726493                       # number of overall MSHR miss cycles
system.cpu.dcache.overall_mshr_miss_latency::total     40726493                       # number of overall MSHR miss cycles
system.cpu.dcache.demand_mshr_miss_rate::.cpu.data     0.003324                       # mshr miss rate for demand accesses
system.cpu.dcache.demand_mshr_miss_rate::total     0.003324                       # mshr miss rate for demand accesses
system.cpu.dcache.overall_mshr_miss_rate::.cpu.data     0.003331                       # mshr miss rate for overall accesses
system.cpu.dcache.overall_mshr_miss_rate::total     0.003331                       # mshr miss rate for overall accesses
system.cpu.dcache.demand_avg_mshr_miss_latency::.cpu.data 81645.147177                       # average overall mshr miss latency
system.cpu.dcache.demand_avg_mshr_miss_latency::total 81645.147177                       # average overall mshr miss latency
system.cpu.dcache.overall_avg_mshr_miss_latency::.cpu.data 81616.218437                       # average overall mshr miss latency
system.cpu.dcache.overall_avg_mshr_miss_latency::total 81616.218437                       # average overall mshr miss latency
system.cpu.dcache.replacements                    123                       # number of replacements
system.cpu.dcache.ReadReq_hits::.cpu.data        84796                       # number of ReadReq hits
system.cpu.dcache.ReadReq_hits::total           84796                       # number of ReadReq hits
system.cpu.dcache.ReadReq_misses::.cpu.data          532                       # number of ReadReq misses
system.cpu.dcache.ReadReq_misses::total           532                       # number of ReadReq misses
system.cpu.dcache.ReadReq_miss_latency::.cpu.data     39308500                       # number of ReadReq miss cycles
system.cpu.dcache.ReadReq_miss_latency::total     39308500                       # number of ReadReq miss cycles
system.cpu.dcache.ReadReq_accesses::.cpu.data        85328                       # number of ReadReq accesses(hits+misses)
system.cpu.dcache.ReadReq_accesses::total        85328                       # number of ReadReq accesses(hits+misses)
system.cpu.dcache.ReadReq_miss_rate::.cpu.data     0.006235                       # miss rate for ReadReq accesses
system.cpu.dcache.ReadReq_miss_rate::total     0.006235                       # miss rate for ReadReq accesses
system.cpu.dcache.ReadReq_avg_miss_latency::.cpu.data 73888.157895                       # average ReadReq miss latency
system.cpu.dcache.ReadReq_avg_miss_latency::total 73888.157895                       # average ReadReq miss latency
system.cpu.dcache.ReadReq_mshr_hits::.cpu.data          335                       # number of ReadReq MSHR hits
system.cpu.dcache.ReadReq_mshr_hits::total          335                       # number of ReadReq MSHR hits
system.cpu.dcache.ReadReq_mshr_misses::.cpu.data          197                       # number of ReadReq MSHR misses
system.cpu.dcache.ReadReq_mshr_misses::total          197                       # number of ReadReq MSHR misses
system.cpu.dcache.ReadReq_mshr_miss_latency::.cpu.data     16208500                       # number of ReadReq MSHR miss cycles
system.cpu.dcache.ReadReq_mshr_miss_latency::total     16208500                       # number of ReadReq MSHR miss cycles
system.cpu.dcache.ReadReq_mshr_miss_rate::.cpu.data     0.002309                       # mshr miss rate for ReadReq accesses
system.cpu.dcache.ReadReq_mshr_miss_rate::total     0.002309                       # mshr miss rate for ReadReq accesses
system.cpu.dcache.ReadReq_avg_mshr_miss_latency::.cpu.data 82276.649746                       # average ReadReq mshr miss latency
system.cpu.dcache.ReadReq_avg_mshr_miss_latency::total 82276.649746                       # average ReadReq mshr miss latency
system.cpu.dcache.WriteReq_hits::.cpu.data        62600                       # number of WriteReq hits
system.cpu.dcache.WriteReq_hits::total          62600                       # number of WriteReq hits
system.cpu.dcache.WriteReq_misses::.cpu.data         1262                       # number of WriteReq misses
system.cpu.dcache.WriteReq_misses::total         1262                       # number of WriteReq misses
system.cpu.dcache.WriteReq_miss_latency::.cpu.data     96723459                       # number of WriteReq miss cycles
system.cpu.dcache.WriteReq_miss_latency::total     96723459                       # number of WriteReq miss cycles
system.cpu.dcache.WriteReq_accesses::.cpu.data        63862                       # number of WriteReq accesses(hits+misses)
system.cpu.dcache.WriteReq_accesses::total        63862                       # number of WriteReq accesses(hits+misses)
system.cpu.dcache.WriteReq_miss_rate::.cpu.data     0.019761                       # miss rate for WriteReq accesses
system.cpu.dcache.WriteReq_miss_rate::total     0.019761                       # miss rate for WriteReq accesses
system.cpu.dcache.WriteReq_avg_miss_latency::.cpu.data 76642.994453                       # average WriteReq miss latency
system.cpu.dcache.WriteReq_avg_miss_latency::total 76642.994453                       # average WriteReq miss latency
system.cpu.dcache.WriteReq_mshr_hits::.cpu.data          971                       # number of WriteReq MSHR hits
system.cpu.dcache.WriteReq_mshr_hits::total          971                       # number of WriteReq MSHR hits
system.cpu.dcache.WriteReq_mshr_misses::.cpu.data          291                       # number of WriteReq MSHR misses
system.cpu.dcache.WriteReq_mshr_misses::total          291                       # number of WriteReq MSHR misses
system.cpu.dcache.WriteReq_mshr_miss_latency::.cpu.data     24040995                       # number of WriteReq MSHR miss cycles
system.cpu.dcache.WriteReq_mshr_miss_latency::total     24040995                       # number of WriteReq MSHR miss cycles
system.cpu.dcache.WriteReq_mshr_miss_rate::.cpu.data     0.004557                       # mshr miss rate for WriteReq accesses
system.cpu.dcache.WriteReq_mshr_miss_rate::total     0.004557                       # mshr miss rate for WriteReq accesses
system.cpu.dcache.WriteReq_avg_mshr_miss_latency::.cpu.data 82615.103093                       # average WriteReq mshr miss latency
system.cpu.dcache.WriteReq_avg_mshr_miss_latency::total 82615.103093                       # average WriteReq mshr miss latency
system.cpu.dcache.SoftPFReq_hits::.cpu.data          595                       # number of SoftPFReq hits
system.cpu.dcache.SoftPFReq_hits::total           595                       # number of SoftPFReq hits
system.cpu.dcache.SoftPFReq_misses::.cpu.data            3                       # number of SoftPFReq misses
system.cpu.dcache.SoftPFReq_misses::total            3                       # number of SoftPFReq misses
system.cpu.dcache.SoftPFReq_accesses::.cpu.data          598                       # number of SoftPFReq accesses(hits+misses)
system.cpu.dcache.SoftPFReq_accesses::total          598                       # number of SoftPFReq accesses(hits+misses)
system.cpu.dcache.SoftPFReq_miss_rate::.cpu.data     0.005017                       # miss rate for SoftPFReq accesses
system.cpu.dcache.SoftPFReq_miss_rate::total     0.005017                       # miss rate for SoftPFReq accesses
system.cpu.dcache.SoftPFReq_mshr_misses::.cpu.data            3                       # number of SoftPFReq MSHR misses
system.cpu.dcache.SoftPFReq_mshr_misses::total            3                       # number of SoftPFReq MSHR misses
system.cpu.dcache.SoftPFReq_mshr_miss_latency::.cpu.data       230500                       # number of SoftPFReq MSHR miss cycles
system.cpu.dcache.SoftPFReq_mshr_miss_latency::total       230500                       # number of SoftPFReq MSHR miss cycles
system.cpu.dcache.SoftPFReq_mshr_miss_rate::.cpu.data     0.005017                       # mshr miss rate for SoftPFReq accesses
system.cpu.dcache.SoftPFReq_mshr_miss_rate::total     0.005017                       # mshr miss rate for SoftPFReq accesses
system.cpu.dcache.SoftPFReq_avg_mshr_miss_latency::.cpu.data 76833.333333                       # average SoftPFReq mshr miss latency
system.cpu.dcache.SoftPFReq_avg_mshr_miss_latency::total 76833.333333                       # average SoftPFReq mshr miss latency
system.cpu.dcache.WriteLineReq_hits::.cpu.data            7                       # number of WriteLineReq hits
system.cpu.dcache.WriteLineReq_hits::total            7                       # number of WriteLineReq hits
system.cpu.dcache.WriteLineReq_misses::.cpu.data            8                       # number of WriteLineReq misses
system.cpu.dcache.WriteLineReq_misses::total            8                       # number of WriteLineReq misses
system.cpu.dcache.WriteLineReq_miss_latency::.cpu.data       254498                       # number of WriteLineReq miss cycles
system.cpu.dcache.WriteLineReq_miss_latency::total       254498                       # number of WriteLineReq miss cycles
system.cpu.dcache.WriteLineReq_accesses::.cpu.data           15                       # number of WriteLineReq accesses(hits+misses)
system.cpu.dcache.WriteLineReq_accesses::total           15                       # number of WriteLineReq accesses(hits+misses)
system.cpu.dcache.WriteLineReq_miss_rate::.cpu.data     0.533333                       # miss rate for WriteLineReq accesses
system.cpu.dcache.WriteLineReq_miss_rate::total     0.533333                       # miss rate for WriteLineReq accesses
system.cpu.dcache.WriteLineReq_avg_miss_latency::.cpu.data 31812.250000                       # average WriteLineReq miss latency
system.cpu.dcache.WriteLineReq_avg_miss_latency::total 31812.250000                       # average WriteLineReq miss latency
system.cpu.dcache.WriteLineReq_mshr_misses::.cpu.data            8                       # number of WriteLineReq MSHR misses
system.cpu.dcache.WriteLineReq_mshr_misses::total            8                       # number of WriteLineReq MSHR misses
system.cpu.dcache.WriteLineReq_mshr_miss_latency::.cpu.data       246498                       # number of WriteLineReq MSHR miss cycles
system.cpu.dcache.WriteLineReq_mshr_miss_latency::total       246498                       # number of WriteLineReq MSHR miss cycles
system.cpu.dcache.WriteLineReq_mshr_miss_rate::.cpu.data     0.533333                       # mshr miss rate for WriteLineReq accesses
system.cpu.dcache.WriteLineReq_mshr_miss_rate::total     0.533333                       # mshr miss rate for WriteLineReq accesses
system.cpu.dcache.WriteLineReq_avg_mshr_miss_latency::.cpu.data 30812.250000                       # average WriteLineReq mshr miss latency
system.cpu.dcache.WriteLineReq_avg_mshr_miss_latency::total 30812.250000                       # average WriteLineReq mshr miss latency
system.cpu.dcache.LoadLockedReq_hits::.cpu.data          280                       # number of LoadLockedReq hits
system.cpu.dcache.LoadLockedReq_hits::total          280                       # number of LoadLockedReq hits
system.cpu.dcache.LoadLockedReq_accesses::.cpu.data          280                       # number of LoadLockedReq accesses(hits+misses)
system.cpu.dcache.LoadLockedReq_accesses::total          280                       # number of LoadLockedReq accesses(hits+misses)
system.cpu.dcache.StoreCondReq_hits::.cpu.data          271                       # number of StoreCondReq hits
system.cpu.dcache.StoreCondReq_hits::total          271                       # number of StoreCondReq hits
system.cpu.dcache.StoreCondReq_accesses::.cpu.data          271                       # number of StoreCondReq accesses(hits+misses)
system.cpu.dcache.StoreCondReq_accesses::total          271                       # number of StoreCondReq accesses(hits+misses)
system.cpu.dcache.power_state.pwrStateResidencyTicks::UNDEFINED    191945000                       # Cumulative time (in ticks) in various power states
system.cpu.dcache.tags.tagsinuse           296.164433                       # Cycle average of tags in use
system.cpu.dcache.tags.total_refs              149048                       # Total number of references to valid blocks.
system.cpu.dcache.tags.sampled_refs               499                       # Sample count of references to valid blocks.
system.cpu.dcache.tags.avg_refs            298.693387                       # Average number of references to valid blocks.
system.cpu.dcache.tags.warmup_cycle            176500                       # Cycle when the warmup percentage was hit.
system.cpu.dcache.tags.occ_blocks::.cpu.data   296.164433                       # Average occupied blocks per requestor
system.cpu.dcache.tags.occ_percent::.cpu.data     0.578446                       # Average percentage of cache occupancy
system.cpu.dcache.tags.occ_percent::total     0.578446                       # Average percentage of cache occupancy
system.cpu.dcache.tags.occ_task_id_blocks::1024          376                       # Occupied blocks per task id
system.cpu.dcache.tags.age_task_id_blocks_1024::0           14                       # Occupied blocks per task id
system.cpu.dcache.tags.age_task_id_blocks_1024::1          110                       # Occupied blocks per task id
system.cpu.dcache.tags.age_task_id_blocks_1024::2          252                       # Occupied blocks per task id
system.cpu.dcache.tags.occ_task_id_percent::1024     0.734375                       # Percentage of cache occupancy per task id
system.cpu.dcache.tags.tag_accesses            301207                       # Number of tag accesses
system.cpu.dcache.tags.data_accesses           301207                       # Number of data accesses
system.cpu.dcache.tags.power_state.pwrStateResidencyTicks::UNDEFINED    191945000                       # Cumulative time (in ticks) in various power states
system.cpu.power_state.pwrStateResidencyTicks::ON    191945000                       # Cumulative time (in ticks) in various power states

---------- End Simulation Statistics   ----------
